**
**  CHERY CAE metal material curve library V2012.11
**
**           Write by Huang Zhuo,
hi Bin
**           Collected by Huang Zhuo,Wang Guofeng
** Generated using HyperMesh-Abaqus Template Version : 11.0
**
**   Template:  ABAQUS/STANDARD 3D
**
**  本库中材料曲线的名称已经过简化处理，欲知完整名称可参阅钢板材料对照表
**  Material name: 材料牌号(-样条形状)(-料厚、尺寸)(-热处理工艺)(-标距)
**  其中名称约定为:
**  板：shell-T料厚,料厚单位为mm*10
**  棒：rod-D直径,直径单位为mm
**  管：tube直径-T壁厚,壁厚单位为mm*10
**  标距：A25,A50,A80,B50,B80,B120,标距单位为mm
**  正火：         normalize
**  冷拉/冷拔： colddraw
**  冷轧：         coldroll
**  热轧：         hotroll
**  调质：         quenchtemper
**  淬火:           quench
**  固溶：         solutiontreat
**  压铸：         diecast
**  挤压：         extruding
**  铸造：         cast
**  金属型铸造：metalcast
**
**
*MATERIAL, NAME=B210P1
*DENSITY
7.8500E-09,0.0
*ELASTIC, TYPE = ISOTROPIC
210000.0  ,0.30   ,0.0
*PLASTIC
229.89   ,0.0000   ,0.0
329.29   ,0.0453   ,0.0
382.20   ,0.0779   ,0.0
422.54   ,0.1077   ,0.0
455.37   ,0.1350   ,0.0
483.13   ,0.1598   ,0.0
509.40   ,0.1841   ,0.0
533.23   ,0.2061   ,0.0
557.78   ,0.2285   ,0.0
580.88   ,0.2488   ,0.0
604.65   ,0.2687   ,0.0
629.39   ,0.2882   ,0.0
654.37   ,0.3066   ,0.0
680.77   ,0.3246   ,0.0
707.63   ,0.3416   ,0.0
734.84   ,0.3577   ,0.0
762.98   ,0.3734   ,0.0
791.41   ,0.3889   ,0.0
817.29   ,0.4036   ,0.0
839.69   ,0.4180   ,0.0
851.12   ,0.4316   ,0.0
*MATERIAL, NAME=MAT-20#-colddraw-D7
*DENSITY
7.8500E-09,0.0
*ELASTIC, TYPE = ISOTROPIC
210000.0  ,0.30   ,0.0
*PLASTIC
700.67   ,0.0000   ,0.0
708.24   ,0.0026   ,0.0
720.16   ,0.0035   ,0.0
724.49   ,0.0045   ,0.0
726.15   ,0.0055   ,0.0
726.75   ,0.0065   ,0.0
*MATERIAL, NAME=MAT-45#-colddraw-D7
*DENSITY
7.8500E-09,0.0
*ELASTIC, TYPE = ISOTROPIC
210000.0  ,0.30   ,0.0
*PLASTIC
1037.82   ,0.0000   ,0.0
1053.92   ,0.0028   ,0.0
1066.41   ,0.0037   ,0.0
1075.87   ,0.0046   ,0.0
1083.06   ,0.0056   ,0.0
1088.71   ,0.0065   ,0.0
1093.09   ,0.0075   ,0.0
1096.38   ,0.0084   ,0.0
1098.96   ,0.0094   ,0.0
1100.75   ,0.0104   ,0.0
1101.90   ,0.0113   ,0.0
1102.46   ,0.0123   ,0.0
*MATERIAL, NAME=ADC12
*DENSITY
2.7000E-09,0.0
*ELASTIC, TYPE = ISOTROPIC
70000.0  ,0.32   ,0.0
*PLASTIC
166.35   ,0.0000   ,0.0
182.21   ,0.0041   ,0.0
191.72   ,0.0060   ,0.0
201.03   ,0.0080   ,0.0
209.75   ,0.0098   ,0.0
217.47   ,0.0115   ,0.0
225.57   ,0.0132   ,0.0
232.62   ,0.0148   ,0.0
239.50   ,0.0164   ,0.0
246.31   ,0.0179   ,0.0
252.50   ,0.0194   ,0.0
258.75   ,0.0209   ,0.0
264.75   ,0.0224   ,0.0
270.30   ,0.0238   ,0.0
275.72   ,0.0251   ,0.0
280.70   ,0.0264   ,0.0
285.64   ,0.0277   ,0.0
290.78   ,0.0291   ,0.0
295.17   ,0.0303   ,0.0
299.83   ,0.0316   ,0.0
304.03   ,0.0328   ,0.0
*MATERIAL, NAME=B340/590DP
*DENSITY
7.8500E-09,0.0
*ELASTIC, TYPE = ISOTROPIC
210000.0  ,0.30   ,0.0
*PLASTIC
378.34   ,0.0000   ,0.0
406.29   ,0.0047   ,0.0
427.61   ,0.0076   ,0.0
447.44   ,0.0104   ,0.0
471.71   ,0.0142   ,0.0
492.97   ,0.0180   ,0.0
516.01   ,0.0228   ,0.0
535.86   ,0.0276   ,0.0
559.54   ,0.0342   ,0.0
579.74   ,0.0408   ,0.0
602.04   ,0.0492   ,0.0
625.11   ,0.0595   ,0.0
648.42   ,0.0715   ,0.0
671.57   ,0.0852   ,0.0
694.38   ,0.1005   ,0.0
718.43   ,0.1182   ,0.0
742.37   ,0.1374   ,0.0
767.88   ,0.1587   ,0.0
792.47   ,0.1796   ,0.0
818.60   ,0.2017   ,0.0
844.86   ,0.2327   ,0.0
*MATERIAL, NAME=B340LA
*DENSITY
7.8500E-09,0.0
*ELASTIC, TYPE = ISOTROPIC
210000.0  ,0.30   ,0.0
*PLASTIC
382.87   ,0.0000   ,0.0
400.89   ,0.0087   ,0.0
419.42   ,0.0474   ,0.0
436.64   ,0.0577   ,0.0
455.93   ,0.0698   ,0.0
474.09   ,0.0826   ,0.0
493.03   ,0.0971   ,0.0
512.54   ,0.1132   ,0.0
531.79   ,0.1298   ,0.0
551.12   ,0.1471   ,0.0
571.56   ,0.1657   ,0.0
592.68   ,0.1848   ,0.0
613.47   ,0.2036   ,0.0
634.75   ,0.2220   ,0.0
656.24   ,0.2401   ,0.0
678.27   ,0.2578   ,0.0
700.89   ,0.2753   ,0.0
724.11   ,0.2924   ,0.0
747.65   ,0.3092   ,0.0
771.26   ,0.3265   ,0.0
795.11   ,0.3519   ,0.0
*MATERIAL, NAME=Q235B
*DENSITY
7.8500E-09,0.0
*ELASTIC, TYPE = ISOTROPIC
210000.0  ,0.30   ,0.0
*PLASTIC
297.66   ,0.0000   ,0.0
374.52   ,0.0172   ,0.0
409.38   ,0.0283   ,0.0
426.56   ,0.0356   ,0.0
446.84   ,0.0465   ,0.0
457.43   ,0.0537   ,0.0
470.67   ,0.0645   ,0.0
478.24   ,0.0716   ,0.0
485.04   ,0.0787   ,0.0
494.14   ,0.0892   ,0.0
499.62   ,0.0961   ,0.0
504.79   ,0.1030   ,0.0
509.68   ,0.1099   ,0.0
516.75   ,0.1200   ,0.0
521.26   ,0.1268   ,0.0
525.59   ,0.1335   ,0.0
529.72   ,0.1401   ,0.0
535.57   ,0.1500   ,0.0
538.91   ,0.1566   ,0.0
541.54   ,0.1631   ,0.0
542.68   ,0.1695   ,0.0
****
*MATERIAL, NAME=Q345B
*DENSITY
7.8500E-09,0.0
*ELASTIC, TYPE = ISOTROPIC
210000.0  ,0.30   ,0.0
*PLASTIC
436.09   ,0.0000   ,0.0
464.17   ,0.0028   ,0.0
478.66   ,0.0156   ,0.0
501.11   ,0.0388   ,0.0
519.43   ,0.0473   ,0.0
539.21   ,0.0576   ,0.0
558.67   ,0.0687   ,0.0
580.56   ,0.0816   ,0.0
601.46   ,0.0943   ,0.0
621.21   ,0.1068   ,0.0
643.68   ,0.1218   ,0.0
664.95   ,0.1366   ,0.0
686.35   ,0.1520   ,0.0
709.19   ,0.1689   ,0.0
731.38   ,0.1855   ,0.0
755.28   ,0.2034   ,0.0
778.95   ,0.2210   ,0.0
802.42   ,0.2383   ,0.0
826.71   ,0.2561   ,0.0
851.51   ,0.2751   ,0.0
876.76   ,0.3084   ,0.0
****
*MATERIAL, NAME=bolt-88
*DENSITY
7.8500E-09,0.0
*ELASTIC, TYPE = ISOTROPIC
210000.0  ,0.30   ,0.0
*PLASTIC
840.25   ,0.0000   ,0.0
854.70   ,0.0069   ,0.0
874.54   ,0.0117   ,0.0
893.52   ,0.0165   ,0.0
907.69   ,0.0204   ,0.0
923.59   ,0.0252   ,0.0
937.57   ,0.0299   ,0.0
947.41   ,0.0337   ,0.0
956.11   ,0.0375   ,0.0
965.74   ,0.0423   ,0.0
972.50   ,0.0461   ,0.0
979.99   ,0.0508   ,0.0
985.29   ,0.0545   ,0.0
990.06   ,0.0583   ,0.0
995.43   ,0.0629   ,0.0
999.19   ,0.0666   ,0.0
1002.62   ,0.0703   ,0.0
1006.19   ,0.0749   ,0.0
1008.42   ,0.0786   ,0.0
1010.59   ,0.0859   ,0.0
****
*MATERIAL, NAME=bolt-109
*DENSITY
7.8500E-09,0.0
*ELASTIC, TYPE = ISOTROPIC
210000.0  ,0.30   ,0.0
*PLASTIC
1127.83   ,0.0000   ,0.0
1138.41   ,0.0045   ,0.0
1149.27   ,0.0074   ,0.0
1156.12   ,0.0094   ,0.0
1166.02   ,0.0123   ,0.0
1172.44   ,0.0142   ,0.0
1181.89   ,0.0171   ,0.0
1187.97   ,0.0190   ,0.0
1196.63   ,0.0219   ,0.0
1202.11   ,0.0238   ,0.0
1207.34   ,0.0257   ,0.0
1214.71   ,0.0286   ,0.0
1219.20   ,0.0305   ,0.0
1225.49   ,0.0334   ,0.0
1229.22   ,0.0353   ,0.0
1234.33   ,0.0381   ,0.0
1237.34   ,0.0400   ,0.0
1239.97   ,0.0419   ,0.0
1243.20   ,0.0448   ,0.0
1244.53   ,0.0467   ,0.0
1245.10   ,0.0486   ,0.0
****
*MATERIAL, NAME=QSTE460TM
*DENSITY
7.8500E-09,0.0
*ELASTIC, TYPE = ISOTROPIC
210000.0  ,0.30   ,0.0
*PLASTIC
500.09   ,0.0000   ,0.0
518.57   ,0.0222   ,0.0
523.87   ,0.0415   ,0.0
566.62   ,0.0603   ,0.0
594.43   ,0.0778   ,0.0
617.71   ,0.0942   ,0.0
639.67   ,0.1112   ,0.0
657.80   ,0.1261   ,0.0
676.07   ,0.1417   ,0.0
692.82   ,0.1563   ,0.0
710.09   ,0.1714   ,0.0
726.34   ,0.1855   ,0.0
742.55   ,0.1994   ,0.0
758.79   ,0.2131   ,0.0
774.44   ,0.2258   ,0.0
790.92   ,0.2392   ,0.0
806.48   ,0.2516   ,0.0
822.77   ,0.2646   ,0.0
836.92   ,0.2767   ,0.0
850.07   ,0.3005   ,0.0
****
*MATERIAL, NAME=MAT-60Si2Mn
*DENSITY
7.8500E-09,0.0
*ELASTIC, TYPE = ISOTROPIC
210000.0  ,0.30   ,0.0
*PLASTIC
1179.72   ,0.0000   ,0.0
1256.65   ,0.0069   ,0.0
1303.37   ,0.0116   ,0.0
1339.39   ,0.0164   ,0.0
1367.23   ,0.0211   ,0.0
1389.84   ,0.0258   ,0.0
1409.77   ,0.0306   ,0.0
1424.54   ,0.0344   ,0.0
1441.77   ,0.0391   ,0.0
1454.79   ,0.0428   ,0.0
1470.00   ,0.0475   ,0.0
1481.53   ,0.0512   ,0.0
1494.94   ,0.0559   ,0.0
1504.86   ,0.0596   ,0.0
1516.43   ,0.0642   ,0.0
1525.02   ,0.0678   ,0.0
1534.83   ,0.0724   ,0.0
1542.05   ,0.0761   ,0.0
1550.01   ,0.0806   ,0.0
1557.76   ,0.0879   ,0.0
****
*MATERIAL, NAME=MAT-55CrSi
*DENSITY
7.8500E-09,0.0
*ELASTIC, TYPE = ISOTROPIC
210000.0  ,0.30   ,0.0
*PLASTIC
1508.69   ,0.0000   ,0.0
1576.59   ,0.0044   ,0.0
1645.44   ,0.0071   ,0.0
1707.79   ,0.0097   ,0.0
1743.77   ,0.0115   ,0.0
1789.57   ,0.0142   ,0.0
1815.61   ,0.0160   ,0.0
1838.22   ,0.0179   ,0.0
1858.21   ,0.0197   ,0.0
1883.63   ,0.0225   ,0.0
1898.04   ,0.0244   ,0.0
1910.86   ,0.0263   ,0.0
1922.54   ,0.0281   ,0.0
1932.87   ,0.0300   ,0.0
1942.16   ,0.0319   ,0.0
1950.46   ,0.0338   ,0.0
1957.59   ,0.0357   ,0.0
1963.55   ,0.0375   ,0.0
1968.15   ,0.0394   ,0.0
1972.00   ,0.0432   ,0.0
****
*MATERIAL, NAME=MAT-40Cr
*DENSITY
7.8500E-09,0.0
*ELASTIC, TYPE = ISOTROPIC
210000.0  ,0.30   ,0.0
*PLASTIC
1043.76   ,0.0000   ,0.0
1103.31   ,0.0057   ,0.0
1147.33   ,0.0084   ,0.0
1188.86   ,0.0112   ,0.0
1223.17   ,0.0140   ,0.0
1248.81   ,0.0168   ,0.0
1271.98   ,0.0196   ,0.0
1291.59   ,0.0224   ,0.0
1307.62   ,0.0253   ,0.0
1320.98   ,0.0281   ,0.0
1328.96   ,0.0300   ,0.0
1339.62   ,0.0328   ,0.0
1349.38   ,0.0357   ,0.0
1358.38   ,0.0385   ,0.0
1366.78   ,0.0413   ,0.0
1374.46   ,0.0441   ,0.0
1381.35   ,0.0470   ,0.0
1387.59   ,0.0498   ,0.0
1392.36   ,0.0526   ,0.0
1395.03   ,0.0554   ,0.0
****
*MATERIAL, NAME=MAT-55Cr3
*DENSITY
7.8500E-09,0.0
*ELASTIC, TYPE = ISOTROPIC
210000.0  ,0.30   ,0.0
*PLASTIC
1283.55   ,0.0000   ,0.0
1334.77   ,0.0095   ,0.0
1348.30   ,0.0124   ,0.0
1360.25   ,0.0153   ,0.0
1371.27   ,0.0182   ,0.0
1381.78   ,0.0210   ,0.0
1394.67   ,0.0249   ,0.0
1404.04   ,0.0277   ,0.0
1412.90   ,0.0306   ,0.0
1421.27   ,0.0334   ,0.0
1429.15   ,0.0363   ,0.0
1436.46   ,0.0391   ,0.0
1445.74   ,0.0429   ,0.0
1451.96   ,0.0457   ,0.0
1457.59   ,0.0485   ,0.0
1462.92   ,0.0513   ,0.0
1467.68   ,0.0541   ,0.0
1472.59   ,0.0578   ,0.0
1475.21   ,0.0606   ,0.0
1475.99   ,0.0634   ,0.0
****
*MATERIAL, NAME=MAT-6061
*DENSITY
2.7000E-09,0.0
*ELASTIC, TYPE = ISOTROPIC
70000.0  ,0.32   ,0.0
*PLASTIC
327.63   ,0.0000   ,0.0
342.30   ,0.0178   ,0.0
347.35   ,0.0236   ,0.0
352.76   ,0.0294   ,0.0
358.42   ,0.0351   ,0.0
363.14   ,0.0398   ,0.0
368.64   ,0.0454   ,0.0
374.05   ,0.0510   ,0.0
379.24   ,0.0566   ,0.0
383.33   ,0.0612   ,0.0
387.96   ,0.0668   ,0.0
392.38   ,0.0723   ,0.0
396.73   ,0.0778   ,0.0
400.08   ,0.0823   ,0.0
403.80   ,0.0877   ,0.0
407.27   ,0.0931   ,0.0
410.38   ,0.0985   ,0.0
412.68   ,0.1030   ,0.0
414.79   ,0.1083   ,0.0
415.60   ,0.1136   ,0.0
****
*MATERIAL, NAME=MAT-6063
*DENSITY
2.7000E-09,0.0
*ELASTIC, TYPE = ISOTROPIC
70000.0  ,0.32   ,0.0
*PLASTIC
211.93   ,0.0000   ,0.0
231.68   ,0.0233   ,0.0
239.40   ,0.0319   ,0.0
246.13   ,0.0395   ,0.0
252.59   ,0.0471   ,0.0
258.80   ,0.0546   ,0.0
264.74   ,0.0620   ,0.0
270.34   ,0.0694   ,0.0
275.59   ,0.0767   ,0.0
281.12   ,0.0849   ,0.0
285.69   ,0.0921   ,0.0
289.96   ,0.0993   ,0.0
293.92   ,0.1064   ,0.0
297.60   ,0.1135   ,0.0
301.13   ,0.1206   ,0.0
304.35   ,0.1276   ,0.0
307.71   ,0.1354   ,0.0
310.48   ,0.1423   ,0.0
312.84   ,0.1491   ,0.0
314.46   ,0.1559   ,0.0
****
*MATERIAL, NAME=B170P1
*DENSITY
7.8500E-09,0.0
*ELASTIC, TYPE = ISOTROPIC
210000.0  ,0.30   ,0.0
*PLASTIC
193.47   ,0.0000   ,0.0
269.59   ,0.0283   ,0.0
306.42   ,0.0473   ,0.0
334.16   ,0.0651   ,0.0
355.64   ,0.0817   ,0.0
372.88   ,0.0972   ,0.0
387.94   ,0.1124   ,0.0
400.46   ,0.1265   ,0.0
412.04   ,0.1404   ,0.0
422.74   ,0.1541   ,0.0
433.01   ,0.1677   ,0.0
442.25   ,0.1802   ,0.0
451.79   ,0.1934   ,0.0
460.73   ,0.2056   ,0.0
469.50   ,0.2177   ,0.0
478.08   ,0.2296   ,0.0
486.74   ,0.2414   ,0.0
495.35   ,0.2531   ,0.0
503.60   ,0.2646   ,0.0
510.60   ,0.2760   ,0.0
513.68   ,0.2865   ,0.0
****
*MATERIAL, NAME=B180H1denting
*DENSITY                   
7.8500E-09,0.0             
*ELASTIC, TYPE = ISOTROPIC 
210000.0  ,0.3       ,0.0  
*PLASTIC                   
239.2,   0.0000,     0                     
260.6,   0.0092,     0                     
281.1,   0.0149,     0                     
310.0,   0.0300,     0                     
329.1,   0.0431,     0                     
346.0,   0.0575,     0                     
361.8,   0.0740,     0                     
374.9,   0.0907,     0                     
390.9,   0.1150,     0                     
405.6,   0.1426,     0                     
416.3,   0.1661,     0                     
423.2,   0.1830,     0                     
432.6,   0.2086,     0                     
439.3,   0.2298,     0                     
442.9,   0.2487,     0
****
*MATERIAL, NAME=B180H1
*DENSITY
7.8500E-09,0.0
*ELASTIC, TYPE = ISOTROPIC
210000.0  ,0.30   ,0.0
*PLASTIC
206.92   ,0.0000   ,0.0
278.62   ,0.0253   ,0.0
309.85   ,0.0435   ,0.0
333.58   ,0.0614   ,0.0
351.53   ,0.0771   ,0.0
367.04   ,0.0927   ,0.0
380.00   ,0.1070   ,0.0
392.51   ,0.1221   ,0.0
402.70   ,0.1352   ,0.0
412.90   ,0.1490   ,0.0
422.78   ,0.1627   ,0.0
431.64   ,0.1753   ,0.0
440.33   ,0.1877   ,0.0
449.55   ,0.2008   ,0.0
458.03   ,0.2129   ,0.0
466.44   ,0.2249   ,0.0
474.79   ,0.2368   ,0.0
482.54   ,0.2477   ,0.0
490.44   ,0.2593   ,0.0
497.23   ,0.2707   ,0.0
500.45   ,0.2813   ,0.0
****
*MATERIAL, NAME=B250P1
*DENSITY
7.8500E-09,0.0
*ELASTIC, TYPE = ISOTROPIC
210000.0  ,0.30   ,0.0
*PLASTIC
303.04   ,0.0000   ,0.0
373.92   ,0.0374   ,0.0
417.04   ,0.0647   ,0.0
451.88   ,0.0904   ,0.0
480.80   ,0.1137   ,0.0
507.11   ,0.1365   ,0.0
531.00   ,0.1579   ,0.0
553.17   ,0.1780   ,0.0
574.96   ,0.1978   ,0.0
595.73   ,0.2163   ,0.0
616.72   ,0.2345   ,0.0
638.34   ,0.2524   ,0.0
659.65   ,0.2692   ,0.0
681.63   ,0.2857   ,0.0
703.34   ,0.3012   ,0.0
726.74   ,0.3172   ,0.0
748.41   ,0.3315   ,0.0
770.86   ,0.3463   ,0.0
790.19   ,0.3602   ,0.0
805.19   ,0.3739   ,0.0
812.10   ,0.3875   ,0.0
****
*MATERIAL, NAME=B510L
*DENSITY
7.8500E-09,0.0
*ELASTIC, TYPE = ISOTROPIC
210000.0  ,0.30   ,0.0
*PLASTIC
390.07   ,0.0000   ,0.0
404.20   ,0.0031   ,0.0
416.32   ,0.0060   ,0.0
427.32   ,0.0089   ,0.0
438.05   ,0.0118   ,0.0
450.73   ,0.0157   ,0.0
461.90   ,0.0196   ,0.0
474.46   ,0.0244   ,0.0
485.79   ,0.0292   ,0.0
495.99   ,0.0340   ,0.0
508.70   ,0.0406   ,0.0
519.93   ,0.0473   ,0.0
532.63   ,0.0557   ,0.0
543.97   ,0.0641   ,0.0
555.87   ,0.0743   ,0.0
568.39   ,0.0862   ,0.0
581.27   ,0.0998   ,0.0
593.68   ,0.1141   ,0.0
606.44   ,0.1299   ,0.0
619.28   ,0.1472   ,0.0
632.24   ,0.1743   ,0.0
****
*MATERIAL, NAME=B400/780DP
*DENSITY
7.8500E-09,0.0
*ELASTIC, TYPE = ISOTROPIC
210000.0  ,0.30   ,0.0
*PLASTIC
511.70   ,0.0000   ,0.0
553.92   ,0.0033   ,0.0
572.64   ,0.0042   ,0.0
588.60   ,0.0052   ,0.0
614.95   ,0.0070   ,0.0
636.08   ,0.0089   ,0.0
660.98   ,0.0108   ,0.0
681.57   ,0.0136   ,0.0
707.12   ,0.0174   ,0.0
729.16   ,0.0212   ,0.0
753.00   ,0.0260   ,0.0
773.84   ,0.0307   ,0.0
798.60   ,0.0373   ,0.0
819.78   ,0.0439   ,0.0
842.85   ,0.0524   ,0.0
866.36   ,0.0626   ,0.0
889.60   ,0.0746   ,0.0
914.68   ,0.0900   ,0.0
938.10   ,0.1071   ,0.0
963.51   ,0.1282   ,0.0
988.35   ,0.1574   ,0.0
****
*MATERIAL, NAME=DC01
*DENSITY
7.8500E-09,0.0
*ELASTIC, TYPE = ISOTROPIC
210000.0  ,0.30   ,0.0
*PLASTIC
190.93   ,0.0000   ,0.0
263.76   ,0.0293   ,0.0
297.09   ,0.0512   ,0.0
320.39   ,0.0708   ,0.0
337.41   ,0.0882   ,0.0
352.69   ,0.1063   ,0.0
365.45   ,0.1231   ,0.0
376.55   ,0.1388   ,0.0
387.48   ,0.1552   ,0.0
397.48   ,0.1704   ,0.0
407.22   ,0.1854   ,0.0
416.29   ,0.1993   ,0.0
425.97   ,0.2139   ,0.0
435.64   ,0.2282   ,0.0
444.98   ,0.2416   ,0.0
454.37   ,0.2548   ,0.0
464.04   ,0.2678   ,0.0
473.89   ,0.2807   ,0.0
483.69   ,0.2933   ,0.0
497.00   ,0.3175   ,0.0
****
*MATERIAL, NAME=DC03
*DENSITY
7.8500E-09,0.0
*ELASTIC, TYPE = ISOTROPIC
210000.0  ,0.300   ,0.0
*PLASTIC
185.72   ,0.0000   ,0.0
198.20   ,0.0050   ,0.0
210.72   ,0.0099   ,0.0
221.63   ,0.0148   ,0.0
233.22   ,0.0207   ,0.0
245.32   ,0.0274   ,0.0
257.56   ,0.0351   ,0.0
269.72   ,0.0437   ,0.0
281.73   ,0.0531   ,0.0
293.67   ,0.0635   ,0.0
306.60   ,0.0764   ,0.0
318.65   ,0.0901   ,0.0
331.37   ,0.1064   ,0.0
344.68   ,0.1250   ,0.0
357.90   ,0.1450   ,0.0
371.58   ,0.1663   ,0.0
385.13   ,0.1880   ,0.0
399.50   ,0.2108   ,0.0
413.71   ,0.2331   ,0.0
428.47   ,0.2565   ,0.0
443.61   ,0.2913   ,0.0
****
*MATERIAL, NAME=DC04
*DENSITY                   
7.8500E-09,0.0             
*ELASTIC, TYPE = ISOTROPIC 
210000.0  ,0.3       ,0.0  
*PLASTIC                   
167.1,   0.0000,     0                      
193.1,   0.0095,     0                      
223.7,   0.0180,     0                      
254.2,   0.0340,     0                      
275.2,   0.0479,     0                      
292.6,   0.0616,     0                      
313.8,   0.0824,     0                      
335.9,   0.1104,     0                      
349.7,   0.1326,     0                      
364.3,   0.1600,     0                      
378.1,   0.1906,     0                      
387.0,   0.2125,     0                      
398.2,   0.2429,     0                      
408.5,   0.2752,     0                      
414.3,   0.3042,     0
****
*MATERIAL, NAME=DC06
*DENSITY                   
7.8500E-09,0.0             
*ELASTIC, TYPE = ISOTROPIC 
210000.0  ,0.3       ,0.0  
*PLASTIC                   
129.1,   0.0000,     0                      
155.2,   0.0075,     0                      
184.3,   0.0130,     0                      
202.5,   0.0217,     0                      
229.6,   0.0364,     0                      
252.6,   0.0514,     0                      
271.6,   0.0665,     0                      
291.6,   0.0865,     0                      
308.1,   0.1077,     0                      
324.4,   0.1339,     0                      
341.3,   0.1678,     0                      
351.2,   0.1911,     0                      
363.2,   0.2236,     0                      
374.1,   0.2597,     0                      
378.2,   0.2853,     0
****
*MATERIAL, NAME=DC53D+Z
*DENSITY
7.8500E-09,0.0
*ELASTIC, TYPE = ISOTROPIC
210000.0  ,0.30   ,0.0
*PLASTIC
176.24   ,0.0000   ,0.0
201.10   ,0.0040   ,0.0
222.22   ,0.0069   ,0.0
238.39   ,0.0108   ,0.0
257.92   ,0.0235   ,0.0
276.63   ,0.0340   ,0.0
296.83   ,0.0474   ,0.0
316.95   ,0.0633   ,0.0
337.51   ,0.0827   ,0.0
358.93   ,0.1062   ,0.0
380.77   ,0.1336   ,0.0
403.37   ,0.1636   ,0.0
425.96   ,0.1935   ,0.0
450.05   ,0.2242   ,0.0
474.66   ,0.2532   ,0.0
499.42   ,0.2798   ,0.0
525.65   ,0.3057   ,0.0
551.84   ,0.3295   ,0.0
578.86   ,0.3528   ,0.0
607.07   ,0.3776   ,0.0
635.27   ,0.4150   ,0.0
****
*MATERIAL, NAME=DC54D+Z
*DENSITY
7.8500E-09,0.0
*ELASTIC, TYPE = ISOTROPIC
210000.0  ,0.30   ,0.0
*PLASTIC
160.82   ,0.0000   ,0.0
174.89   ,0.0081   ,0.0
186.90   ,0.0140   ,0.0
199.89   ,0.0208   ,0.0
211.83   ,0.0275   ,0.0
224.09   ,0.0352   ,0.0
236.53   ,0.0438   ,0.0
250.10   ,0.0542   ,0.0
262.59   ,0.0645   ,0.0
275.86   ,0.0774   ,0.0
288.93   ,0.0920   ,0.0
302.67   ,0.1091   ,0.0
315.89   ,0.1277   ,0.0
330.13   ,0.1494   ,0.0
344.13   ,0.1714   ,0.0
359.07   ,0.1954   ,0.0
374.29   ,0.2197   ,0.0
389.53   ,0.2433   ,0.0
405.45   ,0.2672   ,0.0
421.29   ,0.2906   ,0.0
437.75   ,0.3242   ,0.0
****
*MATERIAL, NAME=DP600
*DENSITY
7.8500E-09,0.0
*ELASTIC, TYPE = ISOTROPIC
210000.0  ,0.30   ,0.0
*PLASTIC
430.12   ,0.0000   ,0.0
455.17   ,0.0038   ,0.0
470.97   ,0.0067   ,0.0
489.78   ,0.0106   ,0.0
509.21   ,0.0144   ,0.0
527.67   ,0.0183   ,0.0
548.80   ,0.0231   ,0.0
564.20   ,0.0269   ,0.0
584.85   ,0.0326   ,0.0
603.29   ,0.0383   ,0.0
622.27   ,0.0449   ,0.0
641.50   ,0.0524   ,0.0
660.93   ,0.0608   ,0.0
681.09   ,0.0709   ,0.0
700.44   ,0.0819   ,0.0
721.66   ,0.0955   ,0.0
741.74   ,0.1098   ,0.0
761.93   ,0.1256   ,0.0
783.64   ,0.1438   ,0.0
804.46   ,0.1625   ,0.0
826.01   ,0.1916   ,0.0
****
*MATERIAL, NAME=DP800
*DENSITY
7.8500E-09,0.0
*ELASTIC, TYPE = ISOTROPIC
210000.0  ,0.30   ,0.0
*PLASTIC
511.70   ,0.0000   ,0.0
553.92   ,0.0033   ,0.0
572.64   ,0.0042   ,0.0
588.60   ,0.0052   ,0.0
614.95   ,0.0070   ,0.0
636.08   ,0.0089   ,0.0
660.98   ,0.0108   ,0.0
681.57   ,0.0136   ,0.0
707.12   ,0.0174   ,0.0
729.16   ,0.0212   ,0.0
753.00   ,0.0260   ,0.0
773.84   ,0.0307   ,0.0
798.60   ,0.0373   ,0.0
819.78   ,0.0439   ,0.0
842.85   ,0.0524   ,0.0
866.36   ,0.0626   ,0.0
889.60   ,0.0746   ,0.0
914.68   ,0.0900   ,0.0
938.10   ,0.1071   ,0.0
963.51   ,0.1282   ,0.0
988.35   ,0.1574   ,0.0
****
*MATERIAL, NAME=H340LAD+Z
*DENSITY
7.8500E-09,0.0
*ELASTIC, TYPE = ISOTROPIC
210000.0  ,0.30   ,0.0
*PLASTIC
343.70   ,0.0000   ,0.0
355.45   ,0.0131   ,0.0
367.53   ,0.0170   ,0.0
378.69   ,0.0208   ,0.0
391.18   ,0.0257   ,0.0
402.65   ,0.0305   ,0.0
415.08   ,0.0362   ,0.0
426.00   ,0.0419   ,0.0
437.52   ,0.0485   ,0.0
449.35   ,0.0560   ,0.0
461.23   ,0.0644   ,0.0
473.01   ,0.0737   ,0.0
485.64   ,0.0847   ,0.0
497.88   ,0.0965   ,0.0
509.72   ,0.1090   ,0.0
522.90   ,0.1240   ,0.0
535.74   ,0.1397   ,0.0
548.47   ,0.1560   ,0.0
561.91   ,0.1737   ,0.0
575.18   ,0.1919   ,0.0
588.65   ,0.2194   ,0.0
****
*MATERIAL, NAME=Q235A
*DENSITY
7.8500E-09,0.0
*ELASTIC, TYPE = ISOTROPIC
210000.0  ,0.30   ,0.0
*PLASTIC
306.51   ,0.0000   ,0.0
382.91   ,0.0432   ,0.0
402.56   ,0.0573   ,0.0
419.82   ,0.0713   ,0.0
435.30   ,0.0850   ,0.0
448.71   ,0.0977   ,0.0
462.04   ,0.1111   ,0.0
474.71   ,0.1244   ,0.0
486.72   ,0.1374   ,0.0
497.62   ,0.1495   ,0.0
508.88   ,0.1622   ,0.0
520.09   ,0.1748   ,0.0
531.05   ,0.1873   ,0.0
541.23   ,0.1987   ,0.0
552.06   ,0.2109   ,0.0
562.82   ,0.2229   ,0.0
573.28   ,0.2347   ,0.0
582.47   ,0.2456   ,0.0
590.52   ,0.2572   ,0.0
593.91   ,0.2687   ,0.0
****
*MATERIAL, NAME=QSTE380TM
*DENSITY
7.8500E-09,0.0
*ELASTIC, TYPE = ISOTROPIC
210000.0  ,0.30   ,0.0
*PLASTIC
464.75   ,0.0000   ,0.0
472.46   ,0.0136   ,0.0
492.10   ,0.0233   ,0.0
509.04   ,0.0329   ,0.0
523.84   ,0.0425   ,0.0
535.62   ,0.0510   ,0.0
547.49   ,0.0604   ,0.0
557.06   ,0.0687   ,0.0
565.88   ,0.0770   ,0.0
574.24   ,0.0853   ,0.0
582.06   ,0.0934   ,0.0
589.51   ,0.1016   ,0.0
596.63   ,0.1096   ,0.0
603.53   ,0.1176   ,0.0
610.12   ,0.1255   ,0.0
616.55   ,0.1333   ,0.0
622.68   ,0.1411   ,0.0
628.40   ,0.1489   ,0.0
633.48   ,0.1565   ,0.0
638.46   ,0.1709   ,0.0
****
*MATERIAL, NAME=QSTE420TM
*DENSITY
7.8500E-09,0.0
*ELASTIC, TYPE = ISOTROPIC
210000.0  ,0.30   ,0.0
*PLASTIC
494.17   ,0.0000   ,0.0
503.33   ,0.0046   ,0.0
513.67   ,0.0271   ,0.0
522.52   ,0.0300   ,0.0
530.17   ,0.0319   ,0.0
538.75   ,0.0357   ,0.0
548.58   ,0.0404   ,0.0
557.47   ,0.0452   ,0.0
565.57   ,0.0499   ,0.0
575.73   ,0.0565   ,0.0
583.86   ,0.0621   ,0.0
593.23   ,0.0695   ,0.0
601.92   ,0.0778   ,0.0
611.96   ,0.0878   ,0.0
620.63   ,0.0969   ,0.0
630.66   ,0.1076   ,0.0
640.27   ,0.1183   ,0.0
649.52   ,0.1288   ,0.0
659.18   ,0.1401   ,0.0
669.55   ,0.1530   ,0.0
679.02   ,0.1699   ,0.0
****
*MATERIAL, NAME=QSTE500TM
*DENSITY
7.8500E-09,0.0
*ELASTIC, TYPE = ISOTROPIC
210000.0  ,0.30   ,0.0
*PLASTIC
559.50   ,0.0000   ,0.0
569.33   ,0.0191   ,0.0
579.82   ,0.0268   ,0.0
589.65   ,0.0316   ,0.0
600.08   ,0.0354   ,0.0
608.15   ,0.0392   ,0.0
617.63   ,0.0439   ,0.0
628.06   ,0.0496   ,0.0
637.47   ,0.0552   ,0.0
647.83   ,0.0618   ,0.0
658.20   ,0.0692   ,0.0
667.69   ,0.0766   ,0.0
677.51   ,0.0848   ,0.0
687.53   ,0.0939   ,0.0
698.59   ,0.1046   ,0.0
708.35   ,0.1144   ,0.0
718.70   ,0.1250   ,0.0
729.63   ,0.1363   ,0.0
740.17   ,0.1475   ,0.0
751.45   ,0.1602   ,0.0
761.82   ,0.1804   ,0.0
****
*MATERIAL, NAME=QT450
*DENSITY
7.4000E-09,0.0
*ELASTIC, TYPE = ISOTROPIC
160000.0  ,0.27   ,0.0
*PLASTIC
345.98   ,0.0000   ,0.0
434.44   ,0.0259   ,0.0
451.33   ,0.0345   ,0.0
465.31   ,0.0421   ,0.0
479.81   ,0.0505   ,0.0
492.91   ,0.0590   ,0.0
503.80   ,0.0664   ,0.0
515.09   ,0.0747   ,0.0
525.40   ,0.0829   ,0.0
533.88   ,0.0902   ,0.0
542.98   ,0.0983   ,0.0
551.39   ,0.1063   ,0.0
558.52   ,0.1134   ,0.0
566.18   ,0.1213   ,0.0
573.33   ,0.1292   ,0.0
579.29   ,0.1361   ,0.0
585.91   ,0.1439   ,0.0
592.07   ,0.1516   ,0.0
597.19   ,0.1584   ,0.0
601.46   ,0.1660   ,0.0
****
*MATERIAL, NAME=QT500
*DENSITY
7.4000E-09,0.0
*ELASTIC, TYPE = ISOTROPIC
160000.0  ,0.27   ,0.0
*PLASTIC
405.00   ,0.0000   ,0.0
506.53   ,0.0244   ,0.0
529.76   ,0.0321   ,0.0
551.47   ,0.0396   ,0.0
574.19   ,0.0481   ,0.0
592.85   ,0.0555   ,0.0
610.03   ,0.0629   ,0.0
627.89   ,0.0712   ,0.0
642.39   ,0.0785   ,0.0
655.75   ,0.0857   ,0.0
668.26   ,0.0930   ,0.0
681.28   ,0.1010   ,0.0
691.82   ,0.1081   ,0.0
701.77   ,0.1152   ,0.0
712.19   ,0.1231   ,0.0
720.67   ,0.1300   ,0.0
728.58   ,0.1369   ,0.0
736.04   ,0.1438   ,0.0
743.25   ,0.1515   ,0.0
747.63   ,0.1583   ,0.0
****
*MATERIAL, NAME=370
*DENSITY
7.8500E-09,0.0
*ELASTIC, TYPE = ISOTROPIC
210000.0  ,0.30   ,0.0
*PLASTIC
261.68   ,0.0000   ,0.0
320.15   ,0.0232   ,0.0
357.29   ,0.0423   ,0.0
380.16   ,0.0583   ,0.0
399.88   ,0.0751   ,0.0
414.77   ,0.0897   ,0.0
428.89   ,0.1050   ,0.0
441.11   ,0.1192   ,0.0
452.69   ,0.1332   ,0.0
463.06   ,0.1462   ,0.0
473.79   ,0.1599   ,0.0
483.57   ,0.1725   ,0.0
493.98   ,0.1858   ,0.0
503.70   ,0.1981   ,0.0
513.39   ,0.2102   ,0.0
523.18   ,0.2223   ,0.0
533.04   ,0.2341   ,0.0
542.70   ,0.2458   ,0.0
550.61   ,0.2567   ,0.0
560.56   ,0.2787   ,0.0
****
*MATERIAL, NAME=SAPH440
*DENSITY
7.8500E-09,0.0       
*ELASTIC, TYPE = ISOTROPIC
210000.0  ,0.3       ,0.0       
*PLASTIC
347.32    ,0.0       ,0.0       
361.07    ,0.00458   ,0.0       
377.41    ,0.00881   ,0.0       
401.45    ,0.01724   ,0.0       
434.7     ,0.03351   ,0.0       
459.87    ,0.04976   ,0.0       
480.61    ,0.06669   ,0.0       
496.17    ,0.08217   ,0.0       
510.75    ,0.09915   ,0.0       
523.69    ,0.11677   ,0.0       
536.03    ,0.13593   ,0.0       
546.74    ,0.15499   ,0.0       
556.36    ,0.17549   ,0.0       
564.25    ,0.19646   ,0.0 
****
*MATERIAL, NAME=SPHC
*DENSITY
7.8500E-09,0.0
*ELASTIC, TYPE = ISOTROPIC
210000.0  ,0.30   ,0.0
*PLASTIC
215.39   ,0.0000   ,0.0
230.29   ,0.0049   ,0.0
241.59   ,0.0098   ,0.0
255.82   ,0.0166   ,0.0
267.67   ,0.0205   ,0.0
281.39   ,0.0292   ,0.0
293.15   ,0.0378   ,0.0
306.57   ,0.0492   ,0.0
320.01   ,0.0624   ,0.0
333.31   ,0.0772   ,0.0
347.29   ,0.0946   ,0.0
361.21   ,0.1134   ,0.0
375.25   ,0.1336   ,0.0
389.65   ,0.1551   ,0.0
404.69   ,0.1779   ,0.0
419.53   ,0.2001   ,0.0
435.54   ,0.2235   ,0.0
451.23   ,0.2455   ,0.0
467.66   ,0.2678   ,0.0
484.16   ,0.2904   ,0.0
500.85   ,0.3219   ,0.0
****
*MATERIAL, NAME=SPHD
*DENSITY
7.8500E-09,0.0
*ELASTIC, TYPE = ISOTROPIC
210000.0  ,0.30   ,0.0
*PLASTIC
222.08   ,0.0000   ,0.0
236.69   ,0.0029   ,0.0
249.63   ,0.0068   ,0.0
261.50   ,0.0107   ,0.0
274.58   ,0.0155   ,0.0
285.88   ,0.0204   ,0.0
297.62   ,0.0262   ,0.0
310.93   ,0.0339   ,0.0
323.59   ,0.0425   ,0.0
336.56   ,0.0529   ,0.0
348.74   ,0.0641   ,0.0
362.27   ,0.0789   ,0.0
375.31   ,0.0953   ,0.0
388.94   ,0.1142   ,0.0
402.63   ,0.1344   ,0.0
416.15   ,0.1550   ,0.0
430.55   ,0.1769   ,0.0
445.42   ,0.1992   ,0.0
460.48   ,0.2210   ,0.0
475.76   ,0.2430   ,0.0
491.27   ,0.2753   ,0.0
****
*MATERIAL, NAME=SPHE
*DENSITY
7.8500E-09,0.0
*ELASTIC, TYPE = ISOTROPIC
210000.0  ,0.30   ,0.0
*PLASTIC
251.18   ,0.0000   ,0.0
305.77   ,0.0406   ,0.0
346.74   ,0.0707   ,0.0
374.11   ,0.0981   ,0.0
395.95   ,0.1239   ,0.0
415.11   ,0.1482   ,0.0
433.63   ,0.1719   ,0.0
450.66   ,0.1934   ,0.0
468.85   ,0.2153   ,0.0
486.73   ,0.2359   ,0.0
505.45   ,0.2561   ,0.0
524.27   ,0.2751   ,0.0
544.06   ,0.2938   ,0.0
564.02   ,0.3114   ,0.0
584.99   ,0.3287   ,0.0
606.00   ,0.3450   ,0.0
627.74   ,0.3610   ,0.0
649.41   ,0.3767   ,0.0
668.62   ,0.3916   ,0.0
684.05   ,0.4062   ,0.0
691.39   ,0.4200   ,0.0
****
*MATERIAL, NAME=MAT-20#-coldroll-T25
*DENSITY
7.8500E-09,0.0
*ELASTIC, TYPE = ISOTROPIC
210000.0  ,0.30   ,0.0
*PLASTIC
260.91   ,0.0000   ,0.0
370.86   ,0.0365   ,0.0
395.07   ,0.0479   ,0.0
414.92   ,0.0591   ,0.0
432.17   ,0.0712   ,0.0
445.66   ,0.0822   ,0.0
457.54   ,0.0931   ,0.0
469.09   ,0.1048   ,0.0
478.90   ,0.1155   ,0.0
488.09   ,0.1261   ,0.0
496.74   ,0.1365   ,0.0
505.82   ,0.1477   ,0.0
514.00   ,0.1580   ,0.0
521.89   ,0.1681   ,0.0
530.32   ,0.1790   ,0.0
538.02   ,0.1889   ,0.0
545.48   ,0.1987   ,0.0
552.56   ,0.2084   ,0.0
559.27   ,0.2189   ,0.0
563.05   ,0.2284   ,0.0
****
*MATERIAL, NAME=MAT-20#-tube35-T20
*DENSITY
7.8500E-09,0.0
*ELASTIC, TYPE = ISOTROPIC
210000.0  ,0.30   ,0.0
*PLASTIC
359.15   ,0.0000   ,0.0
387.97   ,0.0287   ,0.0
407.36   ,0.0373   ,0.0
429.04   ,0.0467   ,0.0
446.65   ,0.0552   ,0.0
464.80   ,0.0645   ,0.0
479.65   ,0.0728   ,0.0
495.00   ,0.0820   ,0.0
507.88   ,0.0902   ,0.0
521.21   ,0.0992   ,0.0
532.54   ,0.1072   ,0.0
544.50   ,0.1161   ,0.0
554.69   ,0.1240   ,0.0
565.33   ,0.1327   ,0.0
574.59   ,0.1405   ,0.0
584.46   ,0.1491   ,0.0
592.87   ,0.1567   ,0.0
601.69   ,0.1652   ,0.0
608.23   ,0.1727   ,0.0
611.42   ,0.1811   ,0.0
****
*MATERIAL, NAME=MAT-20#-normalize-D10
*DENSITY
7.8500E-09,0.0
*ELASTIC, TYPE = ISOTROPIC
210000.0  ,0.30   ,0.0
*PLASTIC
296.04   ,0.0000   ,0.0
418.94   ,0.0411   ,0.0
452.95   ,0.0542   ,0.0
480.60   ,0.0672   ,0.0
505.40   ,0.0810   ,0.0
525.49   ,0.0937   ,0.0
543.97   ,0.1063   ,0.0
562.14   ,0.1195   ,0.0
577.85   ,0.1318   ,0.0
592.64   ,0.1439   ,0.0
606.67   ,0.1558   ,0.0
621.07   ,0.1685   ,0.0
634.15   ,0.1801   ,0.0
646.73   ,0.1917   ,0.0
659.93   ,0.2039   ,0.0
671.97   ,0.2151   ,0.0
683.33   ,0.2263   ,0.0
693.26   ,0.2373   ,0.0
700.76   ,0.2490   ,0.0
703.56   ,0.2598   ,0.0
****
*MATERIAL, NAME=MAT-35#-colddraw-D10
*DENSITY
7.8500E-09,0.0
*ELASTIC, TYPE = ISOTROPIC
210000.0  ,0.30   ,0.0
*PLASTIC
666.66   ,0.0000   ,0.0
724.64   ,0.0035   ,0.0
736.64   ,0.0045   ,0.0
748.15   ,0.0054   ,0.0
759.19   ,0.0063   ,0.0
769.64   ,0.0073   ,0.0
779.33   ,0.0082   ,0.0
788.25   ,0.0092   ,0.0
796.03   ,0.0101   ,0.0
802.73   ,0.0111   ,0.0
808.32   ,0.0120   ,0.0
812.70   ,0.0130   ,0.0
816.29   ,0.0140   ,0.0
818.89   ,0.0149   ,0.0
820.73   ,0.0159   ,0.0
822.08   ,0.0169   ,0.0
822.79   ,0.0178   ,0.0
823.30   ,0.0188   ,0.0
823.35   ,0.0198   ,0.0
****
*MATERIAL, NAME=MAT-35#-normalize-D7
*DENSITY
7.8500E-09,0.0
*ELASTIC, TYPE = ISOTROPIC
210000.0  ,0.30   ,0.0
*PLASTIC
348.30   ,0.0000   ,0.0
443.15   ,0.0409   ,0.0
493.26   ,0.0540   ,0.0
536.02   ,0.0670   ,0.0
570.88   ,0.0789   ,0.0
603.33   ,0.0915   ,0.0
631.47   ,0.1041   ,0.0
655.81   ,0.1164   ,0.0
677.29   ,0.1287   ,0.0
696.56   ,0.1408   ,0.0
714.15   ,0.1527   ,0.0
730.45   ,0.1646   ,0.0
745.73   ,0.1763   ,0.0
760.10   ,0.1878   ,0.0
772.98   ,0.1984   ,0.0
786.43   ,0.2098   ,0.0
799.12   ,0.2209   ,0.0
810.66   ,0.2320   ,0.0
819.59   ,0.2430   ,0.0
823.16   ,0.2538   ,0.0
****
*MATERIAL, NAME=MAT-45#-coldroll-T30
*DENSITY
7.8500E-09,0.0
*ELASTIC, TYPE = ISOTROPIC
210000.0  ,0.30   ,0.0
*PLASTIC
339.75   ,0.0000   ,0.0
367.48   ,0.0042   ,0.0
380.11   ,0.0121   ,0.0
400.06   ,0.0150   ,0.0
422.57   ,0.0178   ,0.0
442.36   ,0.0206   ,0.0
465.98   ,0.0244   ,0.0
482.14   ,0.0273   ,0.0
501.55   ,0.0310   ,0.0
522.97   ,0.0358   ,0.0
545.00   ,0.0414   ,0.0
563.91   ,0.0471   ,0.0
582.77   ,0.0536   ,0.0
604.17   ,0.0638   ,0.0
625.24   ,0.0768   ,0.0
645.48   ,0.0904   ,0.0
667.36   ,0.1066   ,0.0
688.25   ,0.1234   ,0.0
710.32   ,0.1424   ,0.0
733.02   ,0.1637   ,0.0
755.54   ,0.1953   ,0.0
****
*MATERIAL, NAME=MAT-45#-hotroll-T30
*DENSITY
7.8500E-09,0.0
*ELASTIC, TYPE = ISOTROPIC
210000.0  ,0.30   ,0.0
*PLASTIC
412.83   ,0.0000   ,0.0
580.61   ,0.0218   ,0.0
618.86   ,0.0284   ,0.0
653.60   ,0.0360   ,0.0
677.76   ,0.0425   ,0.0
699.70   ,0.0500   ,0.0
715.93   ,0.0566   ,0.0
730.93   ,0.0640   ,0.0
742.05   ,0.0705   ,0.0
753.14   ,0.0778   ,0.0
761.86   ,0.0842   ,0.0
770.90   ,0.0915   ,0.0
778.24   ,0.0978   ,0.0
785.70   ,0.1049   ,0.0
791.95   ,0.1112   ,0.0
798.61   ,0.1182   ,0.0
803.72   ,0.1244   ,0.0
808.94   ,0.1314   ,0.0
812.02   ,0.1374   ,0.0
813.60   ,0.1444   ,0.0
****
*MATERIAL, NAME=MAT-45#-normalize-D10
*DENSITY
7.8500E-09,0.0
*ELASTIC, TYPE = ISOTROPIC
210000.0  ,0.30   ,0.0
*PLASTIC
412.55   ,0.0000   ,0.0
549.64   ,0.0355   ,0.0
586.42   ,0.0468   ,0.0
619.01   ,0.0580   ,0.0
647.72   ,0.0691   ,0.0
674.84   ,0.0810   ,0.0
696.96   ,0.0918   ,0.0
716.75   ,0.1026   ,0.0
734.56   ,0.1132   ,0.0
752.13   ,0.1246   ,0.0
767.12   ,0.1351   ,0.0
781.01   ,0.1454   ,0.0
794.32   ,0.1556   ,0.0
807.88   ,0.1665   ,0.0
819.92   ,0.1766   ,0.0
831.38   ,0.1865   ,0.0
842.23   ,0.1963   ,0.0
852.69   ,0.2068   ,0.0
859.88   ,0.2164   ,0.0
862.42   ,0.2260   ,0.0
****
*MATERIAL, NAME=ZGD410
*DENSITY
7.8500E-09,0.0
*ELASTIC, TYPE = ISOTROPIC
175000.0  ,0.30   ,0.0
*PLASTIC
434.30   ,0.0000   ,0.0
562.70   ,0.0263   ,0.0
599.78   ,0.0348   ,0.0
634.12   ,0.0433   ,0.0
665.42   ,0.0516   ,0.0
693.46   ,0.0600   ,0.0
718.76   ,0.0682   ,0.0
741.12   ,0.0764   ,0.0
761.04   ,0.0846   ,0.0
780.68   ,0.0936   ,0.0
796.44   ,0.1016   ,0.0
810.45   ,0.1096   ,0.0
823.36   ,0.1175   ,0.0
834.94   ,0.1254   ,0.0
845.60   ,0.1332   ,0.0
855.53   ,0.1409   ,0.0
864.43   ,0.1486   ,0.0
872.71   ,0.1563   ,0.0
879.48   ,0.1639   ,0.0
882.97   ,0.1714   ,0.0
****
*MATERIAL, NAME=B410LA
*DENSITY
7.8500E-09,0.0
*ELASTIC, TYPE = ISOTROPIC
210000.0  ,0.30   ,0.0
*PLASTIC
448.75   ,0.0000   ,0.0
456.31   ,0.0121   ,0.0
483.27   ,0.0217   ,0.0
506.48   ,0.0309   ,0.0
525.66   ,0.0397   ,0.0
541.89   ,0.0482   ,0.0
555.71   ,0.0565   ,0.0
568.26   ,0.0645   ,0.0
579.22   ,0.0724   ,0.0
589.31   ,0.0801   ,0.0
598.68   ,0.0878   ,0.0
607.32   ,0.0953   ,0.0
615.47   ,0.1027   ,0.0
623.21   ,0.1100   ,0.0
630.61   ,0.1173   ,0.0
637.67   ,0.1244   ,0.0
644.62   ,0.1315   ,0.0
651.19   ,0.1385   ,0.0
657.58   ,0.1454   ,0.0
670.04   ,0.1590   ,0.0
****
*******************OLD DATA***************************
*MATERIAL, NAME=BP380     
*DENSITY                   
7.8500E-09,0.0             
*ELASTIC, TYPE = ISOTROPIC 
210000.0  ,0.3       ,0.0  
*PLASTIC                   
0.2384E3,   0.0000,     0                     
0.2533E3,   0.0062,     0                     
0.2606E3,   0.0092,     0                     
0.2840E3,   0.0152,     0                     
0.3200E3,   0.0304,     0                     
0.3457E3,   0.0440,     0                     
0.3663E3,   0.0575,     0                     
0.3873E3,   0.0741,     0                     
0.4074E3,   0.0940,     0                     
0.4222E3,   0.1121,     0                     
0.4423E3,   0.1423,     0                     
0.4558E3,   0.1666,     0                     
0.4660E3,   0.1879,     0                     
0.4793E3,   0.2203,     0                     
0.4860E3,   0.2504,     0
****
*MATERIAL, NAME=GLUE-structure-Elastic
*DENSITY                   
1.000E-09,0.0             
*ELASTIC, TYPE = ISOTROPIC 
15.2  ,0.49       ,0.0 
****
*MATERIAL, NAME=GLUE-glass-Elastic
*DENSITY                   
1.000E-09,0.0             
*ELASTIC, TYPE = ISOTROPIC 
3.6  ,0.49       ,0.0 
****
*MATERIAL, NAME=GLUE-vibration-Elastic
*DENSITY                   
1.000E-09,0.0             
*ELASTIC, TYPE = ISOTROPIC 
0.5  ,0.49       ,0.0 
****
*MATERIAL, NAME=RUBBER-Elastic
*DENSITY
1.0000E-09,0.0       
*HYPERELASTIC, N = 2,POLYNOMIAL
0.355900000000000   ,-0.285900000000000  ,1.35400000000000    ,-3.44300000000000   ,2.10800000000000    ,0.000000000000000   ,0.000000000000000   ,                                      
*material, name=ogden-Elastic
*DENSITY
1.0000E-09,0.0
*hyperelastic, n=2, ogden
0.167099, 9.00665, 2.153721E-05, -4.86940, 0.1, 0.1
****
*MATERIAL, NAME=BTR165            
*DENSITY                           
7.800E-09,0.0                     
*ELASTIC, TYPE = ISOTROPIC         
210000.0  ,0.3       ,0.0          
*PLASTIC
1141,   0.0     ,0.0
1271,   0.001   ,0.0
1327,   0.002   ,0.0
1372,   0.003   ,0.0
1410,   0.004   ,0.0
1438,   0.005   ,0.0
1464,   0.006   ,0.0
1482,   0.007   ,0.0
1504,   0.008   ,0.0
1519,   0.009   ,0.0
1532,   0.01    ,0.0
1545,   0.011   ,0.0
1557,   0.012   ,0.0
1564,   0.013   ,0.0
1573,   0.014   ,0.0
1581,   0.015   ,0.0
1588,   0.016   ,0.0
1593,   0.017   ,0.0
1600,   0.018   ,0.0
1604,   0.019   ,0.0
** ... 17 like lines cut
****
*MATERIAL, NAME=DP1000             
*DENSITY                           
7.8500E-09,0.0                     
*ELASTIC, TYPE = ISOTROPIC         
210000.0  ,0.3       ,0.0          
*PLASTIC                           
834.72    ,    0.000        ,     0
874.1     ,    0.000888201  ,     0
928.4     ,    0.002732771  ,     0
979.9     ,    0.005590514  ,     0
1027      ,    0.009868953  ,     0
1070.1    ,    0.015766209  ,     0
1097.1    ,    0.0216392    ,     0
1112.5    ,    0.026166758  ,     0
1134      ,    0.034065621  ,     0
1147.7    ,    0.040501176  ,     0
1159.6    ,    0.047145198  ,     0
****
*MATERIAL, NAME=Mg-alloy-Elastic
*DENSITY
1.81E-09,0.0       
*ELASTIC, TYPE = ISOTROPIC
45000.0  ,0.35       ,0.0
****
*MATERIAL, NAME=GLASS-front-windshield
*DENSITY
2.5000E-09,0.0       
*ELASTIC, TYPE = ISOTROPIC
69000.0  ,0.25       ,0.0
****
*MATERIAL, NAME=HT250
*DENSITY
7.3500E-09,0.0
*ELASTIC, TYPE = ISOTROPIC
125000.0  ,0.27   ,0.0
*PLASTIC
199.18   ,0.0000   ,0.0
205.65   ,0.0043   ,0.0
208.90   ,0.0053   ,0.0
212.17   ,0.0063   ,0.0
213.89   ,0.0068   ,0.0
217.54   ,0.0077   ,0.0
221.23   ,0.0087   ,0.0
225.15   ,0.0096   ,0.0
229.14   ,0.0106   ,0.0
232.94   ,0.0115   ,0.0
236.68   ,0.0125   ,0.0
240.42   ,0.0135   ,0.0
244.35   ,0.0144   ,0.0
248.29   ,0.0154   ,0.0
250.31   ,0.0158   ,0.0
254.34   ,0.0168   ,0.0
258.28   ,0.0177   ,0.0
262.27   ,0.0187   ,0.0
266.26   ,0.0196   ,0.0
270.14   ,0.0206   ,0.0
*******************201211 add***************************
*MATERIAL, NAME=HC420LA
*DENSITY
7.8500E-09,0.0
*ELASTIC, TYPE = ISOTROPIC
210000.0  ,0.30   ,0.0
*PLASTIC
448.54   ,0.0000   ,0.0
465.77   ,0.0156   ,0.0
497.58   ,0.0272   ,0.0
523.59   ,0.0386   ,0.0
543.32   ,0.0491   ,0.0
560.49   ,0.0594   ,0.0
575.40   ,0.0696   ,0.0
588.82   ,0.0797   ,0.0
599.84   ,0.0888   ,0.0
611.14   ,0.0987   ,0.0
620.75   ,0.1077   ,0.0
629.83   ,0.1166   ,0.0
638.62   ,0.1254   ,0.0
647.02   ,0.1341   ,0.0
656.10   ,0.1436   ,0.0
663.88   ,0.1521   ,0.0
671.53   ,0.1606   ,0.0
678.75   ,0.1690   ,0.0
685.56   ,0.1774   ,0.0
693.31   ,0.1931   ,0.0
****
*MATERIAL, NAME=HC500/780DP
*DENSITY
7.8500E-09,0.0
*ELASTIC, TYPE = ISOTROPIC
210000.0  ,0.30   ,0.0
*PLASTIC
634.88   ,0.0000   ,0.0
721.20   ,0.0085   ,0.0
758.72   ,0.0142   ,0.0
780.01   ,0.0190   ,0.0
799.10   ,0.0248   ,0.0
811.87   ,0.0296   ,0.0
822.58   ,0.0343   ,0.0
831.84   ,0.0391   ,0.0
840.13   ,0.0438   ,0.0
847.61   ,0.0486   ,0.0
854.40   ,0.0533   ,0.0
860.80   ,0.0579   ,0.0
866.63   ,0.0626   ,0.0
872.13   ,0.0672   ,0.0
878.34   ,0.0728   ,0.0
883.20   ,0.0774   ,0.0
887.51   ,0.0820   ,0.0
891.46   ,0.0865   ,0.0
894.45   ,0.0911   ,0.0
897.18   ,0.0992   ,0.0
****
*MATERIAL, NAME=MAT-16MnAl-quench-tube
*DENSITY
7.8500E-09,0.0
*ELASTIC, TYPE = ISOTROPIC
210000.0  ,0.30   ,0.0
*PLASTIC
1346.30   ,0.0000   ,0.0
1349.84   ,0.0025   ,0.0
1356.83   ,0.0035   ,0.0
1362.37   ,0.0045   ,0.0
1366.84   ,0.0054   ,0.0
1370.64   ,0.0064   ,0.0
1373.67   ,0.0074   ,0.0
1376.39   ,0.0083   ,0.0
1378.68   ,0.0093   ,0.0
1380.36   ,0.0103   ,0.0
1381.82   ,0.0113   ,0.0
1382.30   ,0.0122   ,0.0
1382.60   ,0.0132   ,0.0
****
*MATERIAL, NAME=DD11
*DENSITY
7.8500E-09,0.0
*ELASTIC, TYPE = ISOTROPIC
210000.0  ,0.30   ,0.0
*PLASTIC
289.57   ,0.0000   ,0.0
292.31   ,0.0223   ,0.0
303.69   ,0.0407   ,0.0
313.36   ,0.0577   ,0.0
332.29   ,0.0745   ,0.0
348.00   ,0.0909   ,0.0
360.65   ,0.1062   ,0.0
372.34   ,0.1213   ,0.0
383.20   ,0.1362   ,0.0
393.00   ,0.1500   ,0.0
402.55   ,0.1636   ,0.0
411.93   ,0.1770   ,0.0
421.24   ,0.1903   ,0.0
430.41   ,0.2033   ,0.0
439.07   ,0.2154   ,0.0
448.32   ,0.2282   ,0.0
456.94   ,0.2400   ,0.0
465.46   ,0.2517   ,0.0
473.68   ,0.2632   ,0.0
480.78   ,0.2746   ,0.0
484.44   ,0.2859   ,0.0
****
*MATERIAL, NAME=ZL107
*DENSITY
2.7000E-09,0.0
*ELASTIC, TYPE = ISOTROPIC
70000.0  ,0.32   ,0.0
*PLASTIC
165.61   ,0.0000   ,0.0
206.73   ,0.0070   ,0.0
225.83   ,0.0117   ,0.0
238.28   ,0.0154   ,0.0
246.52   ,0.0182   ,0.0
256.29   ,0.0220   ,0.0
264.77   ,0.0258   ,0.0
270.69   ,0.0286   ,0.0
276.29   ,0.0314   ,0.0
283.35   ,0.0352   ,0.0
288.32   ,0.0380   ,0.0
293.06   ,0.0408   ,0.0
297.68   ,0.0436   ,0.0
302.08   ,0.0464   ,0.0
306.28   ,0.0492   ,0.0
310.06   ,0.0520   ,0.0
313.84   ,0.0547   ,0.0
317.65   ,0.0575   ,0.0
321.48   ,0.0603   ,0.0
325.34   ,0.0630   ,0.0
327.92   ,0.0648   ,0.0
****
*MATERIAL, NAME=S460MC
*DENSITY
7.8500E-09,0.0
*ELASTIC, TYPE = ISOTROPIC
210000.0  ,0.30   ,0.0
*PLASTIC
493.76   ,0.0000   ,0.0
513.98   ,0.0134   ,0.0
540.96   ,0.0241   ,0.0
561.02   ,0.0337   ,0.0
576.55   ,0.0422   ,0.0
591.61   ,0.0517   ,0.0
603.90   ,0.0601   ,0.0
615.88   ,0.0694   ,0.0
625.80   ,0.0777   ,0.0
634.98   ,0.0859   ,0.0
643.69   ,0.0941   ,0.0
651.87   ,0.1022   ,0.0
659.80   ,0.1102   ,0.0
667.25   ,0.1182   ,0.0
674.63   ,0.1261   ,0.0
681.76   ,0.1339   ,0.0
688.76   ,0.1417   ,0.0
695.55   ,0.1494   ,0.0
701.80   ,0.1571   ,0.0
709.02   ,0.1714   ,0.0
****
*MATERIAL, NAME=S355MC
*DENSITY
7.8500E-09,0.0
*ELASTIC, TYPE = ISOTROPIC
210000.0  ,0.30   ,0.0
*PLASTIC
473.68   ,0.0000   ,0.0
492.95   ,0.0134   ,0.0
504.44   ,0.0231   ,0.0
514.36   ,0.0328   ,0.0
523.40   ,0.0424   ,0.0
531.75   ,0.0518   ,0.0
539.68   ,0.0612   ,0.0
546.39   ,0.0696   ,0.0
553.61   ,0.0788   ,0.0
560.64   ,0.0880   ,0.0
566.75   ,0.0961   ,0.0
573.42   ,0.1051   ,0.0
579.40   ,0.1131   ,0.0
585.90   ,0.1219   ,0.0
592.33   ,0.1307   ,0.0
598.13   ,0.1385   ,0.0
604.46   ,0.1471   ,0.0
609.97   ,0.1548   ,0.0
615.78   ,0.1633   ,0.0
620.12   ,0.1709   ,0.0
622.47   ,0.1784   ,0.0
****
*MATERIAL, NAME=B330CL
*DENSITY
7.8500E-09,0.0
*ELASTIC, TYPE = ISOTROPIC
210000.0  ,0.30   ,0.0
*PLASTIC
280.93   ,0.0000   ,0.0
291.58   ,0.0282   ,0.0
330.55   ,0.0529   ,0.0
360.36   ,0.0752   ,0.0
383.16   ,0.0953   ,0.0
402.14   ,0.1141   ,0.0
419.61   ,0.1325   ,0.0
436.24   ,0.1506   ,0.0
451.57   ,0.1676   ,0.0
466.58   ,0.1843   ,0.0
480.74   ,0.1998   ,0.0
495.57   ,0.2160   ,0.0
509.83   ,0.2311   ,0.0
523.45   ,0.2451   ,0.0
538.10   ,0.2598   ,0.0
552.19   ,0.2735   ,0.0
566.51   ,0.2870   ,0.0
580.86   ,0.3003   ,0.0
594.34   ,0.3134   ,0.0
604.18   ,0.3257   ,0.0
608.61   ,0.3379   ,0.0
****
*MATERIAL, NAME=B380CL
*DENSITY
7.8500E-09,0.0
*ELASTIC, TYPE = ISOTROPIC
210000.0  ,0.30   ,0.0
*PLASTIC
308.59   ,0.0000   ,0.0
315.49   ,0.0261   ,0.0
357.32   ,0.0490   ,0.0
387.36   ,0.0695   ,0.0
409.82   ,0.0879   ,0.0
429.33   ,0.1059   ,0.0
446.95   ,0.1236   ,0.0
462.53   ,0.1402   ,0.0
477.46   ,0.1564   ,0.0
491.24   ,0.1716   ,0.0
505.52   ,0.1874   ,0.0
518.99   ,0.2021   ,0.0
532.45   ,0.2166   ,0.0
545.24   ,0.2301   ,0.0
558.93   ,0.2442   ,0.0
571.98   ,0.2573   ,0.0
585.18   ,0.2703   ,0.0
598.44   ,0.2831   ,0.0
611.21   ,0.2957   ,0.0
622.06   ,0.3082   ,0.0
626.41   ,0.3198   ,0.0
****
*MATERIAL, NAME=MAT-20CrMnTi
*DENSITY
7.8500E-09,0.0
*ELASTIC, TYPE = ISOTROPIC
210000.0  ,0.30   ,0.0
*PLASTIC
766.74   ,0.0000   ,0.0
1152.80  ,0.0064   ,0.0
1254.85  ,0.0099   ,0.0
1317.78  ,0.0135   ,0.0
1360.55  ,0.0172   ,0.0
1384.67  ,0.0200   ,0.0
1409.87  ,0.0238   ,0.0
1425.33  ,0.0266   ,0.0
1438.60  ,0.0295   ,0.0
1453.57  ,0.0333   ,0.0
1463.36  ,0.0361   ,0.0
1472.17  ,0.0389   ,0.0
1480.11  ,0.0417   ,0.0
1487.40  ,0.0446   ,0.0
1496.20  ,0.0483   ,0.0
1502.17  ,0.0511   ,0.0
1507.56  ,0.0539   ,0.0
1512.14  ,0.0567   ,0.0
1515.68  ,0.0595   ,0.0
1518.56  ,0.0651   ,0.0
****
*MATERIAL, NAME=MAT-1Cr17Mn6Ni5
*DENSITY
7.8500E-09,0.0
*ELASTIC, TYPE = ISOTROPIC
210000.0  ,0.29   ,0.0
*PLASTIC
450.52   ,0.0000   ,0.0
632.95   ,0.0543   ,0.0
709.55   ,0.0992   ,0.0
776.04   ,0.1387   ,0.0
848.26   ,0.1758   ,0.0
926.29   ,0.2091   ,0.0
1014.20   ,0.2405   ,0.0
1106.53   ,0.2686   ,0.0
1203.85   ,0.2944   ,0.0
1305.82   ,0.3180   ,0.0
1411.09   ,0.3397   ,0.0
1522.80   ,0.3602   ,0.0
1637.26   ,0.3788   ,0.0
1757.85   ,0.3964   ,0.0
1885.05   ,0.4130   ,0.0
2013.45   ,0.4280   ,0.0
2154.29   ,0.4427   ,0.0
2295.14   ,0.4559   ,0.0
2444.23   ,0.4683   ,0.0
2767.46   ,0.4912   ,0.0
****
*MATERIAL, NAME=DC52D+Z
*DENSITY
7.8500E-09,0.0
*ELASTIC, TYPE = ISOTROPIC
210000.0  ,0.30   ,0.0
*PLASTIC
213.14   ,0.0000   ,0.0
250.70   ,0.0293   ,0.0
283.36   ,0.0522   ,0.0
308.81   ,0.0736   ,0.0
328.68   ,0.0928   ,0.0
345.52   ,0.1108   ,0.0
360.87   ,0.1284   ,0.0
374.43   ,0.1449   ,0.0
387.10   ,0.1611   ,0.0
399.50   ,0.1771   ,0.0
410.75   ,0.1920   ,0.0
421.96   ,0.2066   ,0.0
433.09   ,0.2211   ,0.0
444.29   ,0.2353   ,0.0
455.50   ,0.2494   ,0.0
466.29   ,0.2624   ,0.0
477.29   ,0.2754   ,0.0
488.05   ,0.2881   ,0.0
498.51   ,0.3007   ,0.0
512.64   ,0.3247   ,0.0
****
*MATERIAL, NAME=ZG310
*DENSITY
7.8500E-09,0.0
*ELASTIC, TYPE = ISOTROPIC
210000.0  ,0.30   ,0.0
*PLASTIC
412.90   ,0.0000   ,0.0
470.98   ,0.0185   ,0.0
542.06   ,0.0328   ,0.0
600.96   ,0.0459   ,0.0
649.30   ,0.0580   ,0.0
687.99   ,0.0690   ,0.0
721.58   ,0.0800   ,0.0
748.60   ,0.0899   ,0.0
772.26   ,0.0998   ,0.0
793.33   ,0.1096   ,0.0
810.37   ,0.1184   ,0.0
827.56   ,0.1280   ,0.0
841.77   ,0.1366   ,0.0
854.85   ,0.1452   ,0.0
867.08   ,0.1537   ,0.0
878.51   ,0.1622   ,0.0
889.95   ,0.1714   ,0.0
899.57   ,0.1797   ,0.0
907.94   ,0.1879   ,0.0
916.53   ,0.2035   ,0.0
****
*MATERIAL, NAME=YZAlSi11Cu3
*DENSITY
2.7000E-09,0.0
*ELASTIC, TYPE = ISOTROPIC
70000.0  ,0.32   ,0.0
*PLASTIC
41.11   ,0.0000   ,0.0
123.44   ,0.0110   ,0.0
153.26   ,0.0167   ,0.0
174.90   ,0.0216   ,0.0
192.19   ,0.0259   ,0.0
207.41   ,0.0300   ,0.0
220.93   ,0.0338   ,0.0
232.81   ,0.0372   ,0.0
243.91   ,0.0406   ,0.0
253.83   ,0.0438   ,0.0
263.03   ,0.0469   ,0.0
271.42   ,0.0499   ,0.0
279.10   ,0.0529   ,0.0
286.13   ,0.0557   ,0.0
292.80   ,0.0585   ,0.0
298.66   ,0.0611   ,0.0
304.38   ,0.0639   ,0.0
309.61   ,0.0665   ,0.0
314.41   ,0.0690   ,0.0
318.97   ,0.0716   ,0.0
323.02   ,0.0740   ,0.0
****
*MATERIAL, NAME=SA1D
*DENSITY
7.8500E-09,0.0
*ELASTIC, TYPE = ISOTROPIC
210000.0  ,0.30   ,0.0
*PLASTIC
173.13   ,0.0000   ,0.0
244.76   ,0.0313   ,0.0
276.62   ,0.0560   ,0.0
298.06   ,0.0774   ,0.0
316.35   ,0.0983   ,0.0
332.18   ,0.1180   ,0.0
346.75   ,0.1372   ,0.0
359.68   ,0.1553   ,0.0
371.58   ,0.1722   ,0.0
383.80   ,0.1896   ,0.0
395.35   ,0.2059   ,0.0
406.32   ,0.2212   ,0.0
417.97   ,0.2370   ,0.0
429.32   ,0.2518   ,0.0
440.89   ,0.2664   ,0.0
452.69   ,0.2808   ,0.0
464.56   ,0.2949   ,0.0
475.94   ,0.3082   ,0.0
488.20   ,0.3219   ,0.0
498.03   ,0.3348   ,0.0
503.34   ,0.3469   ,0.0
****
*MATERIAL, NAME=HT200
*DENSITY
7.3500E-09,0.0
*ELASTIC, TYPE = ISOTROPIC
125000.0  ,0.27   ,0.0
*PLASTIC
60.35   ,0.0000   ,0.0
84.31   ,0.0052   ,0.0
99.60   ,0.0077   ,0.0
111.86   ,0.0098   ,0.0
122.48   ,0.0118   ,0.0
132.25   ,0.0137   ,0.0
140.95   ,0.0154   ,0.0
149.23   ,0.0170   ,0.0
157.19   ,0.0185   ,0.0
164.36   ,0.0200   ,0.0
171.75   ,0.0214   ,0.0
178.69   ,0.0227   ,0.0
185.92   ,0.0240   ,0.0
192.77   ,0.0252   ,0.0
199.68   ,0.0264   ,0.0
206.07   ,0.0275   ,0.0
212.40   ,0.0286   ,0.0
218.28   ,0.0297   ,0.0
224.63   ,0.0308   ,0.0
234.63   ,0.0327   ,0.0
****
*MATERIAL, NAME=DP1270
*DENSITY
7.8500E-09,0.0
*ELASTIC, TYPE = ISOTROPIC
210000.0  ,0.30   ,0.0
*PLASTIC
1186.15   ,0.0000   ,0.0
1256.62   ,0.0037   ,0.0
1293.96   ,0.0053   ,0.0
1318.02   ,0.0068   ,0.0
1335.34   ,0.0084   ,0.0
1347.85   ,0.0099   ,0.0
1357.58   ,0.0115   ,0.0
1365.71   ,0.0130   ,0.0
1372.35   ,0.0145   ,0.0
1377.85   ,0.0160   ,0.0
1382.95   ,0.0175   ,0.0
1387.18   ,0.0190   ,0.0
1391.15   ,0.0205   ,0.0
1394.59   ,0.0219   ,0.0
1397.88   ,0.0235   ,0.0
1400.76   ,0.0249   ,0.0
1403.24   ,0.0264   ,0.0
1405.45   ,0.0279   ,0.0
1407.21   ,0.0293   ,0.0
1408.36   ,0.0308   ,0.0
1409.08   ,0.0322   ,0.0
****
*MATERIAL, NAME=B420CL
*DENSITY
7.8500E-09,0.0
*ELASTIC, TYPE = ISOTROPIC
210000.0  ,0.30   ,0.0
*PLASTIC
315.15   ,0.0000   ,0.0
341.44   ,0.0347   ,0.0
389.44   ,0.0649   ,0.0
427.30   ,0.0924   ,0.0
458.41   ,0.1174   ,0.0
485.89   ,0.1409   ,0.0
510.97   ,0.1631   ,0.0
534.33   ,0.1839   ,0.0
557.41   ,0.2044   ,0.0
579.63   ,0.2236   ,0.0
602.24   ,0.2424   ,0.0
624.32   ,0.2602   ,0.0
646.98   ,0.2776   ,0.0
670.55   ,0.2947   ,0.0
693.91   ,0.3108   ,0.0
718.24   ,0.3266   ,0.0
742.22   ,0.3415   ,0.0
766.69   ,0.3561   ,0.0
790.27   ,0.3706   ,0.0
816.57   ,0.3976   ,0.0
****
*MATERIAL, NAME=MAT-08F
*DENSITY
7.8500E-09,0.0
*ELASTIC, TYPE = ISOTROPIC
210000.0  ,0.30   ,0.0
*PLASTIC
171.94   ,0.0000   ,0.0
270.84   ,0.0455   ,0.0
309.39   ,0.0800   ,0.0
339.28   ,0.1116   ,0.0
364.87   ,0.1405   ,0.0
388.38   ,0.1678   ,0.0
410.54   ,0.1935   ,0.0
431.89   ,0.2178   ,0.0
452.72   ,0.2407   ,0.0
474.16   ,0.2631   ,0.0
495.58   ,0.2842   ,0.0
517.31   ,0.3042   ,0.0
540.08   ,0.3237   ,0.0
563.36   ,0.3422   ,0.0
587.09   ,0.3596   ,0.0
612.01   ,0.3767   ,0.0
637.96   ,0.3936   ,0.0
661.58   ,0.4088   ,0.0
683.63   ,0.4245   ,0.0
706.29   ,0.4533   ,0.0
****
*MATERIAL, NAME=A356
*DENSITY
2.7000E-09,0.0
*ELASTIC, TYPE = ISOTROPIC
70000.0  ,0.32   ,0.0
*PLASTIC
163.86   ,0.0000   ,0.0
194.85   ,0.0104   ,0.0
209.81   ,0.0171   ,0.0
222.29   ,0.0238   ,0.0
233.19   ,0.0304   ,0.0
241.50   ,0.0361   ,0.0
249.12   ,0.0417   ,0.0
256.12   ,0.0473   ,0.0
262.52   ,0.0529   ,0.0
267.45   ,0.0576   ,0.0
272.96   ,0.0631   ,0.0
278.04   ,0.0686   ,0.0
281.95   ,0.0732   ,0.0
286.30   ,0.0787   ,0.0
289.66   ,0.0832   ,0.0
292.77   ,0.0878   ,0.0
296.19   ,0.0932   ,0.0
298.78   ,0.0977   ,0.0
301.16   ,0.1021   ,0.0
304.70   ,0.1110   ,0.0
****
*MATERIAL, NAME=ADC14
*DENSITY
2.7000E-09,0.0
*ELASTIC, TYPE = ISOTROPIC
70000.0  ,0.32   ,0.0
*PLASTIC
156.82   ,0.0000   ,0.0
179.30   ,0.0049   ,0.0
189.05   ,0.0073   ,0.0
199.49   ,0.0097   ,0.0
209.29   ,0.0121   ,0.0
214.29   ,0.0138   ,0.0
222.13   ,0.0162   ,0.0
226.75   ,0.0179   ,0.0
230.97   ,0.0196   ,0.0
239.72   ,0.0220   ,0.0
245.21   ,0.0237   ,0.0
250.05   ,0.0253   ,0.0
257.63   ,0.0278   ,0.0
263.15   ,0.0294   ,0.0
269.39   ,0.0310   ,0.0
277.26   ,0.0324   ,0.0
282.67   ,0.0340   ,0.0
289.84   ,0.0355   ,0.0
298.01   ,0.0370   ,0.0
307.89   ,0.0393   ,0.0
312.59   ,0.0400   ,0.0
****
*MATERIAL, NAME=A380
*DENSITY
2.7000E-09,0.0
*ELASTIC, TYPE = ISOTROPIC
70000.0  ,0.30   ,0.0
*PLASTIC
204.73   ,0.0000   ,0.0
250.48   ,0.0103   ,0.0
262.67   ,0.0131   ,0.0
277.48   ,0.0168   ,0.0
292.80   ,0.0205   ,0.0
303.89   ,0.0233   ,0.0
317.91   ,0.0270   ,0.0
330.97   ,0.0306   ,0.0
340.11   ,0.0334   ,0.0
351.54   ,0.0371   ,0.0
359.73   ,0.0398   ,0.0
369.74   ,0.0435   ,0.0
379.10   ,0.0472   ,0.0
385.45   ,0.0499   ,0.0
394.06   ,0.0536   ,0.0
402.14   ,0.0572   ,0.0
408.69   ,0.0599   ,0.0
417.62   ,0.0636   ,0.0
424.55   ,0.0663   ,0.0
433.77   ,0.0698   ,0.0
****
*MATERIAL, NAME=AC2B
*DENSITY
2.7000E-09,0.0
*ELASTIC, TYPE = ISOTROPIC
70000.0  ,0.30   ,0.0
*PLASTIC
229.98   ,0.0000   ,0.0
256.81   ,0.0063   ,0.0
262.68   ,0.0082   ,0.0
270.87   ,0.0110   ,0.0
275.92   ,0.0129   ,0.0
280.68   ,0.0148   ,0.0
287.38   ,0.0177   ,0.0
291.58   ,0.0196   ,0.0
295.53   ,0.0214   ,0.0
301.12   ,0.0243   ,0.0
304.68   ,0.0262   ,0.0
308.08   ,0.0281   ,0.0
313.05   ,0.0309   ,0.0
316.20   ,0.0328   ,0.0
319.27   ,0.0347   ,0.0
323.74   ,0.0375   ,0.0
326.65   ,0.0394   ,0.0
329.50   ,0.0412   ,0.0
333.64   ,0.0440   ,0.0
336.25   ,0.0459   ,0.0
****
*MATERIAL, NAME=AM50A
*DENSITY
1.8100E-09,0.0
*ELASTIC, TYPE = ISOTROPIC
45000.0  ,0.35   ,0.0
*PLASTIC
105.24   ,0.0000   ,0.0
153.58   ,0.0144   ,0.0
158.92   ,0.0202   ,0.0
163.47   ,0.0250   ,0.0
168.21   ,0.0297   ,0.0
173.00   ,0.0344   ,0.0
177.87   ,0.0391   ,0.0
182.72   ,0.0438   ,0.0
187.59   ,0.0484   ,0.0
193.44   ,0.0540   ,0.0
198.28   ,0.0586   ,0.0
203.05   ,0.0631   ,0.0
207.83   ,0.0677   ,0.0
212.53   ,0.0722   ,0.0
217.15   ,0.0768   ,0.0
221.74   ,0.0813   ,0.0
227.14   ,0.0866   ,0.0
231.60   ,0.0911   ,0.0
235.92   ,0.0955   ,0.0
239.70   ,0.0999   ,0.0
****
*MATERIAL, NAME=BIF340
*DENSITY
7.8500E-09,0.0
*ELASTIC, TYPE = ISOTROPIC
210000.0  ,0.30   ,0.0
*PLASTIC
219.13   ,0.0000   ,0.0
297.32   ,0.0281   ,0.0
338.36   ,0.0491   ,0.0
366.69   ,0.0678   ,0.0
387.18   ,0.0843   ,0.0
405.45   ,0.1015   ,0.0
419.63   ,0.1167   ,0.0
433.22   ,0.1325   ,0.0
445.08   ,0.1472   ,0.0
456.23   ,0.1616   ,0.0
467.03   ,0.1759   ,0.0
476.95   ,0.1892   ,0.0
487.45   ,0.2031   ,0.0
497.22   ,0.2160   ,0.0
507.73   ,0.2295   ,0.0
517.65   ,0.2420   ,0.0
527.68   ,0.2545   ,0.0
537.80   ,0.2667   ,0.0
547.78   ,0.2788   ,0.0
556.97   ,0.2908   ,0.0
561.64   ,0.3019   ,0.0
****
*MATERIAL, NAME=Docol600DP
*DENSITY
7.8500E-09,0.0
*ELASTIC, TYPE = ISOTROPIC
210000.0  ,0.30   ,0.0
*PLASTIC
401.72   ,0.0000   ,0.0
579.15   ,0.0278   ,0.0
612.41   ,0.0363   ,0.0
642.50   ,0.0457   ,0.0
665.00   ,0.0542   ,0.0
686.46   ,0.0635   ,0.0
703.48   ,0.0718   ,0.0
720.24   ,0.0809   ,0.0
733.95   ,0.0891   ,0.0
747.75   ,0.0981   ,0.0
759.43   ,0.1061   ,0.0
771.47   ,0.1150   ,0.0
781.78   ,0.1229   ,0.0
792.70   ,0.1316   ,0.0
802.03   ,0.1394   ,0.0
811.85   ,0.1480   ,0.0
820.32   ,0.1557   ,0.0
829.46   ,0.1641   ,0.0
836.95   ,0.1716   ,0.0
844.65   ,0.1800   ,0.0
****
*MATERIAL, NAME=Docol1000DP
*DENSITY
7.8500E-09,0.0
*ELASTIC, TYPE = ISOTROPIC
210000.0  ,0.30   ,0.0
*PLASTIC
832.14   ,0.0000   ,0.0
983.49   ,0.0082   ,0.0
1013.55   ,0.0110   ,0.0
1039.01   ,0.0139   ,0.0
1058.48   ,0.0167   ,0.0
1072.66   ,0.0196   ,0.0
1085.04   ,0.0224   ,0.0
1096.23   ,0.0253   ,0.0
1106.11   ,0.0282   ,0.0
1114.48   ,0.0310   ,0.0
1122.27   ,0.0339   ,0.0
1129.03   ,0.0367   ,0.0
1135.53   ,0.0396   ,0.0
1141.16   ,0.0424   ,0.0
1146.59   ,0.0452   ,0.0
1150.81   ,0.0481   ,0.0
1155.06   ,0.0509   ,0.0
1158.74   ,0.0537   ,0.0
1161.84   ,0.0565   ,0.0
1163.51   ,0.0593   ,0.0
****
*MATERIAL, NAME=Docol1200M
*DENSITY
7.8500E-09,0.0
*ELASTIC, TYPE = ISOTROPIC
210000.0  ,0.30   ,0.0
*PLASTIC
1187.90   ,0.0000   ,0.0
1243.23   ,0.0040   ,0.0
1263.07   ,0.0049   ,0.0
1293.21   ,0.0068   ,0.0
1304.09   ,0.0077   ,0.0
1313.15   ,0.0086   ,0.0
1332.68   ,0.0105   ,0.0
1338.98   ,0.0115   ,0.0
1343.09   ,0.0124   ,0.0
1351.45   ,0.0143   ,0.0
1355.22   ,0.0153   ,0.0
1358.53   ,0.0163   ,0.0
1366.72   ,0.0182   ,0.0
1369.46   ,0.0191   ,0.0
1372.23   ,0.0201   ,0.0
1377.16   ,0.0220   ,0.0
1379.13   ,0.0230   ,0.0
1380.72   ,0.0240   ,0.0
1382.90   ,0.0259   ,0.0
1383.97   ,0.0268   ,0.0
****
*MATERIAL, NAME=H300LAD+Z
*DENSITY
7.8500E-09,0.0
*ELASTIC, TYPE = ISOTROPIC
210000.0  ,0.30   ,0.0
*PLASTIC
285.01   ,0.0000   ,0.0
319.10   ,0.0025   ,0.0
321.68   ,0.0035   ,0.0
334.58   ,0.0143   ,0.0
347.04   ,0.0191   ,0.0
361.42   ,0.0249   ,0.0
373.92   ,0.0307   ,0.0
388.29   ,0.0383   ,0.0
400.71   ,0.0459   ,0.0
415.55   ,0.0563   ,0.0
428.45   ,0.0666   ,0.0
442.63   ,0.0795   ,0.0
457.15   ,0.0940   ,0.0
471.78   ,0.1102   ,0.0
486.60   ,0.1278   ,0.0
501.23   ,0.1460   ,0.0
516.60   ,0.1656   ,0.0
532.40   ,0.1856   ,0.0
548.13   ,0.2052   ,0.0
564.16   ,0.2252   ,0.0
580.39   ,0.2542   ,0.0
****
*MATERIAL, NAME=HC380/590TR
*DENSITY
7.8500E-09,0.0
*ELASTIC, TYPE = ISOTROPIC
210000.0  ,0.30   ,0.0
*PLASTIC
456.77   ,0.0000   ,0.0
494.16   ,0.0243   ,0.0
546.87   ,0.0405   ,0.0
588.81   ,0.0574   ,0.0
619.28   ,0.0722   ,0.0
647.19   ,0.0877   ,0.0
669.29   ,0.1012   ,0.0
691.06   ,0.1154   ,0.0
710.20   ,0.1285   ,0.0
728.34   ,0.1415   ,0.0
745.91   ,0.1543   ,0.0
763.08   ,0.1670   ,0.0
779.90   ,0.1794   ,0.0
795.44   ,0.1910   ,0.0
810.98   ,0.2023   ,0.0
827.61   ,0.2144   ,0.0
843.06   ,0.2255   ,0.0
858.43   ,0.2365   ,0.0
873.00   ,0.2474   ,0.0
884.88   ,0.2582   ,0.0
889.20   ,0.2681   ,0.0
****
*MATERIAL, NAME=SECC
*DENSITY
7.8500E-09,0.0
*ELASTIC, TYPE = ISOTROPIC
210000.0  ,0.30   ,0.0
*PLASTIC
206.30   ,0.0000   ,0.0
225.51   ,0.0059   ,0.0
244.79   ,0.0167   ,0.0
263.81   ,0.0273   ,0.0
281.99   ,0.0388   ,0.0
301.12   ,0.0531   ,0.0
320.07   ,0.0699   ,0.0
340.31   ,0.0910   ,0.0
360.72   ,0.1152   ,0.0
381.43   ,0.1423   ,0.0
402.73   ,0.1712   ,0.0
424.45   ,0.2001   ,0.0
447.36   ,0.2290   ,0.0
470.69   ,0.2563   ,0.0
494.81   ,0.2821   ,0.0
518.86   ,0.3057   ,0.0
544.40   ,0.3289   ,0.0
570.46   ,0.3508   ,0.0
596.20   ,0.3715   ,0.0
623.45   ,0.3945   ,0.0
650.52   ,0.4313   ,0.0
****
*MATERIAL, NAME=SGCC
*DENSITY
7.8500E-09,0.0
*ELASTIC, TYPE = ISOTROPIC
210000.0  ,0.30   ,0.0
*PLASTIC
270.77   ,0.0000   ,0.0
298.85   ,0.0213   ,0.0
331.28   ,0.0376   ,0.0
351.52   ,0.0519   ,0.0
367.55   ,0.0659   ,0.0
380.56   ,0.0798   ,0.0
391.02   ,0.0925   ,0.0
400.46   ,0.1052   ,0.0
409.19   ,0.1176   ,0.0
417.42   ,0.1299   ,0.0
425.40   ,0.1421   ,0.0
432.53   ,0.1532   ,0.0
440.16   ,0.1651   ,0.0
447.18   ,0.1760   ,0.0
454.70   ,0.1876   ,0.0
461.63   ,0.1983   ,0.0
468.99   ,0.2096   ,0.0
475.60   ,0.2201   ,0.0
481.67   ,0.2304   ,0.0
486.46   ,0.2406   ,0.0
488.53   ,0.2508   ,0.0
****
*MATERIAL, NAME=SPCC
*DENSITY
7.8500E-09,0.0
*ELASTIC, TYPE = ISOTROPIC
210000.0  ,0.30   ,0.0
*PLASTIC
212.03   ,0.0000   ,0.0
296.96   ,0.0464   ,0.0
336.73   ,0.0827   ,0.0
367.56   ,0.1160   ,0.0
393.26   ,0.1465   ,0.0
416.99   ,0.1753   ,0.0
439.12   ,0.2017   ,0.0
461.51   ,0.2273   ,0.0
484.84   ,0.2523   ,0.0
507.78   ,0.2752   ,0.0
532.08   ,0.2976   ,0.0
558.11   ,0.3194   ,0.0
584.25   ,0.3394   ,0.0
612.56   ,0.3589   ,0.0
642.12   ,0.3774   ,0.0
672.74   ,0.3949   ,0.0
703.52   ,0.4114   ,0.0
735.02   ,0.4276   ,0.0
763.72   ,0.4430   ,0.0
800.73   ,0.4724   ,0.0
****
*MATERIAL, NAME=SPCD
*DENSITY
7.8500E-09,0.0
*ELASTIC, TYPE = ISOTROPIC
210000.0  ,0.30   ,0.0
*PLASTIC
216.35   ,0.0000   ,0.0
288.11   ,0.0388   ,0.0
323.59   ,0.0689   ,0.0
350.11   ,0.0964   ,0.0
371.43   ,0.1213   ,0.0
391.01   ,0.1457   ,0.0
409.03   ,0.1686   ,0.0
426.65   ,0.1911   ,0.0
443.59   ,0.2122   ,0.0
461.01   ,0.2329   ,0.0
478.30   ,0.2524   ,0.0
496.17   ,0.2715   ,0.0
514.05   ,0.2895   ,0.0
532.81   ,0.3072   ,0.0
552.29   ,0.3245   ,0.0
571.62   ,0.3409   ,0.0
591.43   ,0.3570   ,0.0
609.99   ,0.3721   ,0.0
626.89   ,0.3870   ,0.0
640.26   ,0.4017   ,0.0
646.41   ,0.4156   ,0.0
****
*MATERIAL, NAME=ST37
*DENSITY
7.8500E-09,0.0
*ELASTIC, TYPE = ISOTROPIC
210000.0  ,0.30   ,0.0
*PLASTIC
412.04   ,0.0000   ,0.0
471.03   ,0.0027   ,0.0
511.06   ,0.0035   ,0.0
539.81   ,0.0044   ,0.0
560.87   ,0.0053   ,0.0
576.42   ,0.0062   ,0.0
588.14   ,0.0071   ,0.0
597.11   ,0.0081   ,0.0
604.15   ,0.0091   ,0.0
609.84   ,0.0100   ,0.0
614.48   ,0.0110   ,0.0
618.42   ,0.0119   ,0.0
621.75   ,0.0129   ,0.0
624.59   ,0.0139   ,0.0
627.12   ,0.0149   ,0.0
629.32   ,0.0158   ,0.0
631.32   ,0.0168   ,0.0
642.91   ,0.0255   ,0.0
655.25   ,0.0438   ,0.0
667.50   ,0.0673   ,0.0
679.70   ,0.0957   ,0.0
****
*MATERIAL, NAME=MAT-10#-colddraw-D5
*DENSITY
7.8500E-09,0.0
*ELASTIC, TYPE = ISOTROPIC
210000.0  ,0.30   ,0.0
*PLASTIC
435.84   ,0.0000   ,0.0
456.15   ,0.0147   ,0.0
464.83   ,0.0195   ,0.0
472.89   ,0.0244   ,0.0
481.82   ,0.0302   ,0.0
488.52   ,0.0350   ,0.0
494.72   ,0.0397   ,0.0
500.10   ,0.0445   ,0.0
505.08   ,0.0492   ,0.0
509.42   ,0.0540   ,0.0
513.29   ,0.0587   ,0.0
516.70   ,0.0633   ,0.0
519.71   ,0.0680   ,0.0
522.36   ,0.0726   ,0.0
525.21   ,0.0782   ,0.0
527.11   ,0.0827   ,0.0
528.69   ,0.0873   ,0.0
529.86   ,0.0919   ,0.0
530.75   ,0.0964   ,0.0
531.17   ,0.1009   ,0.0
****
*MATERIAL, NAME=SUS201
*DENSITY
7.8500E-09,0.0
*ELASTIC, TYPE = ISOTROPIC
210000.0  ,0.29   ,0.0
*PLASTIC
310.16   ,0.0000   ,0.0
573.44   ,0.1142   ,0.0
627.82   ,0.1489   ,0.0
685.18   ,0.1832   ,0.0
745.47   ,0.2156   ,0.0
813.32   ,0.2477   ,0.0
888.55   ,0.2787   ,0.0
970.32   ,0.3080   ,0.0
1064.30   ,0.3371   ,0.0
1167.87   ,0.3646   ,0.0
1288.69   ,0.3920   ,0.0
1424.62   ,0.4178   ,0.0
1587.55   ,0.4435   ,0.0
1780.20   ,0.4684   ,0.0
2008.49   ,0.4918   ,0.0
2298.21   ,0.5150   ,0.0
2652.65   ,0.5366   ,0.0
3151.46   ,0.5577   ,0.0
3845.46   ,0.5767   ,0.0
4765.64   ,0.5947   ,0.0
****
*MATERIAL, NAME=WH180B
*DENSITY
7.8500E-09,0.0
*ELASTIC, TYPE = ISOTROPIC
210000.0  ,0.30   ,0.0
*PLASTIC
206.08   ,0.0000   ,0.0
221.11   ,0.0079   ,0.0
232.99   ,0.0101   ,0.0
245.63   ,0.0133   ,0.0
257.30   ,0.0199   ,0.0
269.24   ,0.0286   ,0.0
282.36   ,0.0394   ,0.0
295.32   ,0.0512   ,0.0
308.41   ,0.0639   ,0.0
321.33   ,0.0774   ,0.0
335.48   ,0.0938   ,0.0
349.14   ,0.1110   ,0.0
362.48   ,0.1289   ,0.0
376.98   ,0.1493   ,0.0
391.37   ,0.1703   ,0.0
405.92   ,0.1918   ,0.0
421.01   ,0.2137   ,0.0
436.82   ,0.2361   ,0.0
452.21   ,0.2570   ,0.0
468.25   ,0.2784   ,0.0
484.61   ,0.3101   ,0.0
****
*MATERIAL, NAME=WH180Y
*DENSITY
7.8500E-09,0.0
*ELASTIC, TYPE = ISOTROPIC
210000.0  ,0.30   ,0.0
*PLASTIC
206.17   ,0.0000   ,0.0
223.70   ,0.0089   ,0.0
240.78   ,0.0125   ,0.0
254.90   ,0.0161   ,0.0
268.62   ,0.0222   ,0.0
282.83   ,0.0306   ,0.0
297.31   ,0.0402   ,0.0
313.70   ,0.0520   ,0.0
328.60   ,0.0638   ,0.0
344.80   ,0.0776   ,0.0
360.74   ,0.0925   ,0.0
376.36   ,0.1082   ,0.0
393.36   ,0.1270   ,0.0
409.83   ,0.1465   ,0.0
426.99   ,0.1677   ,0.0
445.00   ,0.1906   ,0.0
462.68   ,0.2129   ,0.0
481.04   ,0.2357   ,0.0
500.17   ,0.2590   ,0.0
518.96   ,0.2818   ,0.0
538.63   ,0.3186   ,0.0
****
*MATERIAL, NAME=WH220BD+Z
*DENSITY
7.8500E-09,0.0
*ELASTIC, TYPE = ISOTROPIC
210000.0  ,0.30   ,0.0
*PLASTIC
243.40   ,0.0000   ,0.0
257.01   ,0.0054   ,0.0
272.53   ,0.0087   ,0.0
286.37   ,0.0109   ,0.0
296.56   ,0.0130   ,0.0
309.59   ,0.0174   ,0.0
321.06   ,0.0228   ,0.0
332.80   ,0.0294   ,0.0
346.71   ,0.0380   ,0.0
358.87   ,0.0465   ,0.0
372.30   ,0.0571   ,0.0
384.81   ,0.0687   ,0.0
397.68   ,0.0821   ,0.0
411.83   ,0.0985   ,0.0
425.15   ,0.1155   ,0.0
438.91   ,0.1343   ,0.0
453.14   ,0.1546   ,0.0
468.14   ,0.1764   ,0.0
482.61   ,0.1978   ,0.0
498.29   ,0.2214   ,0.0
513.38   ,0.2549   ,0.0
****
*MATERIAL, NAME=WH220Y
*DENSITY
7.8500E-09,0.0
*ELASTIC, TYPE = ISOTROPIC
210000.0  ,0.30   ,0.0
*PLASTIC
241.70   ,0.0000   ,0.0
260.90   ,0.0092   ,0.0
279.92   ,0.0136   ,0.0
303.51   ,0.0193   ,0.0
320.38   ,0.0266   ,0.0
338.00   ,0.0366   ,0.0
358.82   ,0.0495   ,0.0
377.23   ,0.0607   ,0.0
398.46   ,0.0760   ,0.0
418.21   ,0.0910   ,0.0
439.26   ,0.1086   ,0.0
460.14   ,0.1271   ,0.0
480.52   ,0.1466   ,0.0
503.47   ,0.1695   ,0.0
525.51   ,0.1918   ,0.0
548.20   ,0.2149   ,0.0
571.96   ,0.2387   ,0.0
596.15   ,0.2618   ,0.0
619.67   ,0.2834   ,0.0
645.58   ,0.3066   ,0.0
670.38   ,0.3400   ,0.0
****
*MATERIAL, NAME=WH260Y
*DENSITY
7.8500E-09,0.0
*ELASTIC, TYPE = ISOTROPIC
210000.0  ,0.30   ,0.0
*PLASTIC
264.54   ,0.0000   ,0.0
282.91   ,0.0031   ,0.0
301.88   ,0.0105   ,0.0
321.32   ,0.0163   ,0.0
336.15   ,0.0206   ,0.0
353.33   ,0.0293   ,0.0
370.75   ,0.0408   ,0.0
388.47   ,0.0536   ,0.0
406.74   ,0.0676   ,0.0
425.29   ,0.0828   ,0.0
442.58   ,0.0977   ,0.0
461.37   ,0.1151   ,0.0
481.60   ,0.1349   ,0.0
500.73   ,0.1542   ,0.0
520.12   ,0.1744   ,0.0
541.19   ,0.1967   ,0.0
561.92   ,0.2185   ,0.0
582.64   ,0.2398   ,0.0
604.50   ,0.2618   ,0.0
626.94   ,0.2844   ,0.0
649.38   ,0.3219   ,0.0
****
*MATERIAL, NAME=WHT600DP
*DENSITY
7.8500E-09,0.0
*ELASTIC, TYPE = ISOTROPIC
210000.0  ,0.30   ,0.0
*PLASTIC
377.30   ,0.0000   ,0.0
405.17   ,0.0041   ,0.0
422.27   ,0.0060   ,0.0
444.61   ,0.0088   ,0.0
464.62   ,0.0117   ,0.0
482.71   ,0.0146   ,0.0
503.93   ,0.0184   ,0.0
526.35   ,0.0232   ,0.0
544.81   ,0.0279   ,0.0
567.27   ,0.0346   ,0.0
587.97   ,0.0422   ,0.0
607.90   ,0.0506   ,0.0
628.53   ,0.0609   ,0.0
651.22   ,0.0739   ,0.0
672.00   ,0.0876   ,0.0
693.90   ,0.1038   ,0.0
716.65   ,0.1223   ,0.0
738.84   ,0.1414   ,0.0
762.33   ,0.1627   ,0.0
785.88   ,0.1852   ,0.0
810.03   ,0.2209   ,0.0
****
*MATERIAL, NAME=ZL104
*DENSITY
2.7000E-09,0.0
*ELASTIC, TYPE = ISOTROPIC
70000.0  ,0.32   ,0.0
*PLASTIC
123.94   ,0.0000   ,0.0
176.94   ,0.0163   ,0.0
193.79   ,0.0209   ,0.0
208.82   ,0.0256   ,0.0
222.42   ,0.0303   ,0.0
234.79   ,0.0349   ,0.0
243.83   ,0.0386   ,0.0
254.16   ,0.0433   ,0.0
263.48   ,0.0479   ,0.0
271.82   ,0.0525   ,0.0
279.76   ,0.0571   ,0.0
287.84   ,0.0617   ,0.0
294.00   ,0.0653   ,0.0
301.45   ,0.0699   ,0.0
308.63   ,0.0744   ,0.0
315.52   ,0.0789   ,0.0
322.23   ,0.0834   ,0.0
327.39   ,0.0870   ,0.0
332.94   ,0.0915   ,0.0
335.81   ,0.0960   ,0.0
****
*MATERIAL, NAME=ZL111
*DENSITY
2.7000E-09,0.0
*ELASTIC, TYPE = ISOTROPIC
70000.0  ,0.32   ,0.0
*PLASTIC
279.46   ,0.0000   ,0.0
296.20   ,0.0031   ,0.0
301.38   ,0.0042   ,0.0
306.43   ,0.0052   ,0.0
311.30   ,0.0062   ,0.0
316.48   ,0.0073   ,0.0
321.06   ,0.0083   ,0.0
325.48   ,0.0094   ,0.0
329.70   ,0.0104   ,0.0
334.12   ,0.0115   ,0.0
338.00   ,0.0125   ,0.0
341.76   ,0.0135   ,0.0
345.34   ,0.0146   ,0.0
349.07   ,0.0157   ,0.0
352.29   ,0.0167   ,0.0
355.37   ,0.0178   ,0.0
358.35   ,0.0188   ,0.0
361.45   ,0.0199   ,0.0
364.07   ,0.0210   ,0.0
366.29   ,0.0220   ,0.0
****
*MATERIAL, NAME=ZZnAl4Cu1Y
*DENSITY
6.7000E-09,0.0
*ELASTIC, TYPE = ISOTROPIC
80000.0  ,0.27   ,0.0
*PLASTIC
86.79   ,0.0000   ,0.0
149.92   ,0.0043   ,0.0
167.56   ,0.0052   ,0.0
183.37   ,0.0061   ,0.0
197.76   ,0.0070   ,0.0
210.74   ,0.0079   ,0.0
222.48   ,0.0089   ,0.0
233.39   ,0.0098   ,0.0
243.58   ,0.0108   ,0.0
254.38   ,0.0118   ,0.0
263.85   ,0.0128   ,0.0
272.62   ,0.0137   ,0.0
280.66   ,0.0147   ,0.0
287.67   ,0.0157   ,0.0
293.91   ,0.0167   ,0.0
299.51   ,0.0177   ,0.0
304.38   ,0.0187   ,0.0
308.63   ,0.0198   ,0.0
312.28   ,0.0208   ,0.0
314.50   ,0.0218   ,0.0
****
*MATERIAL, NAME=MnAl16     
*DENSITY                   
7.8500E-09,0.0             
*ELASTIC, TYPE = ISOTROPIC 
210000.0  ,0.3       ,0.0  
*PLASTIC                   
1.1713E3,   0.0000,     0                     
1.1959E3,   0.0014,     0                     
1.2160E3,   0.0027,     0                     
1.2340E3,   0.0042,     0                     
1.2490E3,   0.0061,     0                     
1.2610E3,   0.0081,     0                     
1.2700E3,   0.0101,     0                     
1.2800E3,   0.0126,     0                     
1.2870E3,   0.0149,     0                     
1.2930E3,   0.0173,     0                     
1.2990E3,   0.0200,     0                     
1.3040E3,   0.0228,     0                     
1.3080E3,   0.0256,     0                     
1.3110E3,   0.0285,     0                     
1.3140E3,   0.0314,     0
****
*MATERIAL, NAME=SUH409     
*DENSITY                   
7.8500E-09,0.0             
*ELASTIC, TYPE = ISOTROPIC 
210000.0  ,0.3       ,0.0  
*PLASTIC                   
0.308E3      ,        0.0        ,       0
0.458559663E3,        0.002261654,       0
0.457379465E3,        0.005456213,       0
0.464921579E3,        0.010080955,       0
0.489612051E3,        0.026318054,       0
0.559704262E3,        0.048475449,       0
0.654761764E3,        0.099778491,       0
0.781108598E3,        0.221774681,       0
****
*MATERIAL, NAME=ZG410-700
*DENSITY
7.85000E-09,0.0       
*ELASTIC, TYPE = ISOTROPIC
210000.0  ,0.3       ,0.0
****
*MATERIAL, NAME=B140H1
*DENSITY
7.8500E-09,0.0
*ELASTIC, TYPE = ISOTROPIC
210000.0  ,0.30   ,0.0
*PLASTIC
211.61   ,0.0000   ,0.0
282.32   ,0.0417   ,0.0
318.04   ,0.0727   ,0.0
345.64   ,0.1018   ,0.0
368.28   ,0.1284   ,0.0
388.53   ,0.1534   ,0.0
407.37   ,0.1770   ,0.0
425.99   ,0.2001   ,0.0
444.14   ,0.2218   ,0.0
462.66   ,0.2431   ,0.0
481.14   ,0.2631   ,0.0
499.65   ,0.2820   ,0.0
518.87   ,0.3006   ,0.0
539.12   ,0.3188   ,0.0
559.02   ,0.3360   ,0.0
579.64   ,0.3528   ,0.0
599.75   ,0.3687   ,0.0
619.27   ,0.3844   ,0.0
636.74   ,0.3998   ,0.0
650.03   ,0.4143   ,0.0
657.19   ,0.4287   ,0.0
****
*MATERIAL, NAME=MAT-08Al
*DENSITY
7.8500E-09,0.0
*ELASTIC, TYPE = ISOTROPIC
210000.0  ,0.30   ,0.0
*PLASTIC
183.00   ,0.0000   ,0.0
240.24   ,0.0467   ,0.0
272.90   ,0.0747   ,0.0
298.02   ,0.1002   ,0.0
318.34   ,0.1234   ,0.0
336.81   ,0.1460   ,0.0
353.34   ,0.1672   ,0.0
368.53   ,0.1872   ,0.0
383.53   ,0.2068   ,0.0
397.77   ,0.2252   ,0.0
412.27   ,0.2433   ,0.0
426.34   ,0.2603   ,0.0
440.80   ,0.2770   ,0.0
455.64   ,0.2935   ,0.0
470.37   ,0.3089   ,0.0
485.56   ,0.3241   ,0.0
501.24   ,0.3391   ,0.0
516.54   ,0.3531   ,0.0
531.53   ,0.3670   ,0.0
544.41   ,0.3806   ,0.0
550.25   ,0.3935   ,0.0
****
*MATERIAL, NAME=B460NQ
*DENSITY
7.8500E-09,0.0
*ELASTIC, TYPE = ISOTROPIC
210000.0  ,0.30   ,0.0
*PLASTIC
322.04   ,0.0000   ,0.0
347.15   ,0.0033   ,0.0
375.02   ,0.0062   ,0.0
390.88   ,0.0091   ,0.0
415.22   ,0.0159   ,0.0
436.72   ,0.0246   ,0.0
458.28   ,0.0341   ,0.0
481.38   ,0.0455   ,0.0
503.14   ,0.0578   ,0.0
526.89   ,0.0726   ,0.0
550.37   ,0.0890   ,0.0
574.08   ,0.1070   ,0.0
598.61   ,0.1273   ,0.0
623.47   ,0.1489   ,0.0
648.88   ,0.1717   ,0.0
675.42   ,0.1948   ,0.0
701.30   ,0.2166   ,0.0
728.63   ,0.2387   ,0.0
756.37   ,0.2603   ,0.0
785.47   ,0.2829   ,0.0
813.98   ,0.3153   ,0.0
****
*MATERIAL, NAME=Q195-shell-T25
*DENSITY
7.8500E-09,0.0
*ELASTIC, TYPE = ISOTROPIC
210000.0  ,0.30   ,0.0
*PLASTIC
279.58   ,0.0000   ,0.0
349.09   ,0.0424   ,0.0
362.82   ,0.0565   ,0.0
373.01   ,0.0696   ,0.0
382.35   ,0.0834   ,0.0
390.22   ,0.0962   ,0.0
397.64   ,0.1088   ,0.0
405.51   ,0.1221   ,0.0
412.77   ,0.1343   ,0.0
420.55   ,0.1473   ,0.0
427.84   ,0.1592   ,0.0
435.65   ,0.1719   ,0.0
443.06   ,0.1835   ,0.0
450.44   ,0.1951   ,0.0
458.39   ,0.2073   ,0.0
465.83   ,0.2185   ,0.0
473.58   ,0.2304   ,0.0
480.42   ,0.2414   ,0.0
486.36   ,0.2531   ,0.0
488.55   ,0.2639   ,0.0
****
*MATERIAL, NAME=Q195-tube42-T10
*DENSITY
7.8500E-09,0.0
*ELASTIC, TYPE = ISOTROPIC
210000.0  ,0.30   ,0.0
*PLASTIC
325.68   ,0.0000   ,0.0
376.72   ,0.0430   ,0.0
387.29   ,0.0564   ,0.0
396.48   ,0.0696   ,0.0
405.12   ,0.0826   ,0.0
413.48   ,0.0956   ,0.0
421.77   ,0.1083   ,0.0
430.02   ,0.1208   ,0.0
438.36   ,0.1332   ,0.0
446.67   ,0.1454   ,0.0
455.02   ,0.1576   ,0.0
463.45   ,0.1695   ,0.0
472.00   ,0.1813   ,0.0
480.82   ,0.1930   ,0.0
489.39   ,0.2045   ,0.0
498.19   ,0.2159   ,0.0
507.01   ,0.2272   ,0.0
515.86   ,0.2383   ,0.0
523.94   ,0.2494   ,0.0
528.65   ,0.2602   ,0.0
****
*MATERIAL, NAME=QSTE340TM-shell-T40
*DENSITY
7.8500E-09,0.0
*ELASTIC, TYPE = ISOTROPIC
210000.0  ,0.30   ,0.0
*PLASTIC
459.08   ,0.0000   ,0.0
471.19   ,0.0465   ,0.0
474.04   ,0.0617   ,0.0
501.48   ,0.0764   ,0.0
519.42   ,0.0910   ,0.0
534.79   ,0.1045   ,0.0
550.20   ,0.1187   ,0.0
564.79   ,0.1327   ,0.0
579.19   ,0.1465   ,0.0
592.61   ,0.1593   ,0.0
606.82   ,0.1727   ,0.0
620.95   ,0.1860   ,0.0
634.94   ,0.1991   ,0.0
648.06   ,0.2112   ,0.0
661.90   ,0.2240   ,0.0
675.52   ,0.2366   ,0.0
688.55   ,0.2490   ,0.0
699.58   ,0.2606   ,0.0
708.50   ,0.2727   ,0.0
712.58   ,0.2848   ,0.0
****
*MATERIAL, NAME=QSTE340TM-tube25-T15
*DENSITY
7.8500E-09,0.0
*ELASTIC, TYPE = ISOTROPIC
210000.0  ,0.30   ,0.0
*PLASTIC
382.31   ,0.0000   ,0.0
472.62   ,0.0057   ,0.0
475.87   ,0.0067   ,0.0
480.35   ,0.0087   ,0.0
483.27   ,0.0106   ,0.0
485.59   ,0.0126   ,0.0
487.48   ,0.0145   ,0.0
489.06   ,0.0165   ,0.0
490.50   ,0.0184   ,0.0
491.14   ,0.0194   ,0.0
492.27   ,0.0214   ,0.0
493.34   ,0.0233   ,0.0
494.26   ,0.0253   ,0.0
495.07   ,0.0272   ,0.0
495.86   ,0.0291   ,0.0
496.59   ,0.0311   ,0.0
496.83   ,0.0320   ,0.0
497.31   ,0.0340   ,0.0
497.62   ,0.0359   ,0.0
497.74   ,0.0378   ,0.0
****
*MATERIAL, NAME=Docol800DP
*DENSITY
7.8500E-09,0.0
*ELASTIC, TYPE = ISOTROPIC
210000.0  ,0.30   ,0.0
*PLASTIC
549.77   ,0.0000   ,0.0
723.75   ,0.0126   ,0.0
757.09   ,0.0174   ,0.0
776.82   ,0.0212   ,0.0
798.67   ,0.0259   ,0.0
812.64   ,0.0297   ,0.0
825.52   ,0.0335   ,0.0
839.75   ,0.0382   ,0.0
849.72   ,0.0420   ,0.0
860.44   ,0.0467   ,0.0
869.20   ,0.0505   ,0.0
878.41   ,0.0551   ,0.0
885.08   ,0.0589   ,0.0
891.37   ,0.0626   ,0.0
897.96   ,0.0672   ,0.0
903.46   ,0.0709   ,0.0
909.27   ,0.0755   ,0.0
911.62   ,0.0791   ,0.0
914.71   ,0.0837   ,0.0
915.60   ,0.0873   ,0.0
****
*MATERIAL, NAME=GLASS-rear-windshield
*DENSITY
2.5000E-09,0.0       
*ELASTIC, TYPE = ISOTROPIC
61300.0  ,0.25       ,0.0
****
*MATERIAL, NAME=cast-Al-Elastic  
*DENSITY                   
2.6800E-09,0.0             
*ELASTIC, TYPE = ISOTROPIC 
70000.0  ,0.32       ,0.0  
****
*MATERIAL, NAME=Wrought-Al-alloy-Elastic    
*DENSITY                   
2.6800E-09,0.0             
*ELASTIC, TYPE = ISOTROPIC 
70000.0  ,0.32       ,0.0 
****
*MATERIAL, NAME=nodular-cast-iron-Elastic     
*DENSITY                   
7.2000E-09,0.0             
*ELASTIC, TYPE = ISOTROPIC 
168000.0  ,0.3       ,0.0 
****
*MATERIAL, NAME=alloy-steel-Elastic   
*DENSITY                   
7.9000E-09,0.0             
*ELASTIC, TYPE = ISOTROPIC 
206000.0  ,0.29       ,0.0 
****
*MATERIAL, NAME=gray-cast-iron-Elastic     
*DENSITY                   
7.3500E-09,0.0             
*ELASTIC, TYPE = ISOTROPIC 
125000.0  ,0.27       ,0.0 
****
*MATERIAL, NAME=cast-steel-Elastic
*DENSITY
7.8500E-09,0.0
*ELASTIC, TYPE = ISOTROPIC
175000.0  ,0.30   ,0.0
****
*MATERIAL, NAME=Zn-alloy-Elasitc
*DENSITY
6.7000E-09,0.0
*ELASTIC, TYPE = ISOTROPIC
80000.0  ,0.27   ,0.0
****
*MATERIAL, NAME=steel-Elastic
*DENSITY
7.8500E-09,0.0
*ELASTIC, TYPE = ISOTROPIC
210000.0  ,0.30   ,0.0
****
*MATERIAL, NAME=DP500
*DENSITY
7.8500E-09,0.0
*ELASTIC, TYPE = ISOTROPIC
210000.0  ,0.30   ,0.0
*PLASTIC
325.04   ,0.0000   ,0.0
332.73   ,0.0030   ,0.0
339.97   ,0.0042   ,0.0
348.29   ,0.0057   ,0.0
356.79   ,0.0074   ,0.0
364.84   ,0.0089   ,0.0
373.19   ,0.0106   ,0.0
382.25   ,0.0126   ,0.0
389.95   ,0.0142   ,0.0
397.85   ,0.0160   ,0.0
406.21   ,0.0180   ,0.0
414.85   ,0.0202   ,0.0
423.13   ,0.0224   ,0.0
433.54   ,0.0255   ,0.0
442.96   ,0.0283   ,0.0
452.61   ,0.0315   ,0.0
463.31   ,0.0354   ,0.0
474.04   ,0.0395   ,0.0
483.37   ,0.0434   ,0.0
495.31   ,0.0487   ,0.0
505.01   ,0.0535   ,0.0
****